@<TRIPOS>MOLECULE
ZINC000000899166
  49   51    0    0    0
SMALL
NO_CHARGES
@<TRIPOS>ATOM
   1 O1             0.0021    -0.0041     0.0020 O.3     
   2 C2            -0.0164     1.3548     0.0095 C.ar    
   3 C3            -1.2251     2.0295     0.0304 C.ar    
   4 C4            -1.2427     3.4263     0.0386 C.ar    
   5 C5            -2.5268     4.1495     0.0613 C.2     
   6 C6            -3.6823     3.4656     0.0743 C.2     
   7 C7            -4.9660     4.1885     0.0971 C.ar    
   8 C8            -4.9836     5.5862     0.0994 C.ar    
   9 C9            -6.1866     6.2579     0.1208 C.ar    
  10 C10           -7.3805     5.5482     0.1400 C.ar    
  11 O11           -8.5641     6.2147     0.1606 O.3     
  12 C12           -7.3681     4.1592     0.1377 C.ar    
  13 C13           -6.1702     3.4788     0.1106 C.ar    
  14 C14           -0.0395     4.1354     0.0255 C.ar    
  15 C15            1.1644     3.4513     0.0046 C.ar    
  16 O16            2.3359     4.1401    -0.0077 O.3     
  17 C17            3.5403     3.3714    -0.0291 C.3     
  18 H18            3.5023     2.6143     0.7541 H       
  19 O19            3.6766     2.7346    -1.3012 O.3     
  20 C20            4.8413     1.9153    -1.4217 C.3     
  21 H21            4.8205     1.1392    -0.6566 H       
  22 C22            4.8671     1.2658    -2.8067 C.3     
  23 O23            3.7605     0.3706    -2.9338 O.3     
  24 C24            6.0921     2.7789    -1.2391 C.3     
  25 H25            6.1346     3.5298    -2.0280 H       
  26 O26            7.2563     1.9527    -1.3030 O.3     
  27 C27            6.0294     3.4726     0.1251 C.3     
  28 H28            6.0369     2.7228     0.9162 H       
  29 O29            7.1580     4.3364     0.2745 O.3     
  30 C30            4.7389     4.2934     0.2097 C.3     
  31 H31            4.7539     5.0750    -0.5499 H       
  32 O32            4.6352     4.8882     1.5049 O.3     
  33 C33            1.1767     2.0639     0.0019 C.ar    
  34 H34           -2.1529     1.4768     0.0401 H       
  35 H35           -2.5384     5.2294     0.0676 H       
  36 H36           -3.6707     2.3857     0.0681 H       
  37 H37           -4.0558     6.1388     0.0849 H       
  38 H38           -6.2012     7.3378     0.1230 H       
  39 H39           -8.9215     6.4087    -0.7167 H       
  40 H40           -8.2989     3.6118     0.1531 H       
  41 H41           -6.1615     2.3988     0.1086 H       
  42 H42           -0.0480     5.2153     0.0314 H       
  43 H43            4.7987     2.0390    -3.5720 H       
  44 H44            5.7980     0.7126    -2.9313 H       
  45 H45            3.7136    -0.0779    -3.7892 H       
  46 H46            8.0874     2.4351    -1.1948 H       
  47 H47            7.1826     4.8091     1.1177 H       
  48 H48            3.8397     5.4238     1.6292 H       
  49 H49            2.1176     1.5340    -0.0144 H       
@<TRIPOS>BOND
   1    1    2 1
   2    2   33 ar
   3    2    3 ar
   4    3    4 ar
   5    3   34 1
   6    4    5 1
   7    4   14 ar
   8    5    6 2
   9    5   35 1
  10    6    7 1
  11    6   36 1
  12    7   13 ar
  13    7    8 ar
  14    8    9 ar
  15    8   37 1
  16    9   10 ar
  17    9   38 1
  18   10   11 1
  19   10   12 ar
  20   11   39 1
  21   12   13 ar
  22   12   40 1
  23   13   41 1
  24   14   15 ar
  25   14   42 1
  26   15   16 1
  27   15   33 ar
  28   16   17 1
  29   17   18 1
  30   17   30 1
  31   17   19 1
  32   19   20 1
  33   20   21 1
  34   20   22 1
  35   20   24 1
  36   22   23 1
  37   22   43 1
  38   22   44 1
  39   23   45 1
  40   24   25 1
  41   24   26 1
  42   24   27 1
  43   26   46 1
  44   27   28 1
  45   27   29 1
  46   27   30 1
  47   29   47 1
  48   30   31 1
  49   30   32 1
  50   32   48 1
  51   33   49 1
