
     RDKit          3D

 19 20  0  0  0  0  0  0  0  0999 V2000
   -4.8609   -2.4095   -0.1898 C   0  0  0  0  0  0  0  0  0  0  0  0
   -4.5457   -1.0436    0.0091 O   0  0  0  0  0  0  0  0  0  0  0  0
   -3.2283   -0.6080    0.0270 C   0  0  0  0  0  0  0  0  0  0  0  0
   -2.1937   -1.4770   -0.1457 C   0  0  0  0  0  0  0  0  0  0  0  0
   -0.8372   -1.0396   -0.1290 C   0  0  0  0  0  0  0  0  0  0  0  0
    0.0552   -2.1120   -0.3278 C   0  0  0  0  0  0  0  0  0  0  0  0
    1.2997   -2.0810   -0.3697 C   0  0  0  0  0  0  0  0  0  0  0  0
    2.0904   -0.9078   -0.2183 C   0  0  0  0  0  0  0  0  0  0  0  0
    1.8013    0.3754   -0.0095 C   0  0  0  0  0  0  0  0  0  0  0  0
    2.7113    1.3754    0.1107 C   0  0  0  0  0  0  0  0  0  0  0  0
    4.0495    1.1057    0.0189 C   0  0  0  0  0  0  0  0  0  0  0  0
    5.0074    2.0771    0.1329 O   0  0  0  0  0  0  0  0  0  0  0  0
    4.4102   -0.2047   -0.1967 C   0  0  0  0  0  0  0  0  0  0  0  0
    3.4682   -1.1928   -0.3139 C   0  0  0  0  0  0  0  0  0  0  0  0
   -0.6969    0.2752    0.0686 C   0  0  0  0  0  0  0  0  0  0  0  0
   -1.7117    1.1682    0.2443 C   0  0  0  0  0  0  0  0  0  0  0  0
   -1.3950    2.5102    0.4395 O   0  0  0  0  0  0  0  0  0  0  0  0
   -2.4262    3.4620    0.6249 C   0  0  0  0  0  0  0  0  0  0  0  0
   -2.9975    0.7267    0.2243 C   0  0  0  0  0  0  0  0  0  0  0  0
  1  2  1  0
  2  3  1  0
  3  4  2  0
  4  5  1  0
  5  6  1  0
  6  7  2  0
  7  8  1  0
  8  9  2  0
  9 10  1  0
 10 11  2  0
 11 12  1  0
 11 13  1  0
 13 14  2  0
  5 15  2  0
 15 16  1  0
 16 17  1  0
 17 18  1  0
 16 19  2  0
 19  3  1  0
 14  8  1  0
M  END
>  <zinc_id>  (1) 
ZINC000000003225

>  <smiles>  (1) 
COc1cc(/C=C\c2ccc(O)cc2)cc(OC)c1

$$$$

     RDKit          3D

 28 30  0  0  0  0  0  0  0  0999 V2000
   -5.8509   -2.0094   -0.1635 O   0  0  0  0  0  0  0  0  0  0  0  0
   -5.6037   -1.1886    0.8863 C   0  0  0  0  0  0  0  0  0  0  0  0
   -5.3895    0.3137    0.1869 C   0  0  2  0  0  0  0  0  0  0  0  0
   -4.2148   -0.0498   -0.5892 O   0  0  0  0  0  0  0  0  0  0  0  0
   -2.9880    0.4798    0.1577 C   0  0  1  0  0  0  0  0  0  0  0  0
   -2.1004    0.4650   -1.2273 O   0  0  0  0  0  0  0  0  0  0  0  0
   -1.0090   -0.3140   -0.8322 C   0  0  0  0  0  0  0  0  0  0  0  0
   -1.3819   -1.7243   -0.6091 C   0  0  0  0  0  0  0  0  0  0  0  0
   -0.4238   -2.6416   -0.2498 C   0  0  0  0  0  0  0  0  0  0  0  0
   -0.7954   -3.9702   -0.0260 O   0  0  0  0  0  0  0  0  0  0  0  0
    0.8578   -2.3043   -0.1013 C   0  0  0  0  0  0  0  0  0  0  0  0
    1.2937   -0.9825   -0.3029 C   0  0  0  0  0  0  0  0  0  0  0  0
    2.5782   -0.4709   -0.1570 C   0  0  0  0  0  0  0  0  0  0  0  0
    3.6167   -1.1202    0.4276 C   0  0  0  0  0  0  0  0  0  0  0  0
    4.8965   -0.2809    0.4126 C   0  0  0  0  0  0  0  0  0  0  0  0
    5.9309   -0.5960    1.2955 C   0  0  0  0  0  0  0  0  0  0  0  0
    7.1368    0.1036    1.1974 C   0  0  0  0  0  0  0  0  0  0  0  0
    7.2834    1.0527    0.2601 C   0  0  0  0  0  0  0  0  0  0  0  0
    8.5327    1.7161    0.1712 O   0  0  0  0  0  0  0  0  0  0  0  0
    6.3255    1.4159   -0.6340 C   0  0  0  0  0  0  0  0  0  0  0  0
    5.0761    0.6924   -0.5193 C   0  0  0  0  0  0  0  0  0  0  0  0
    0.2770   -0.0581   -0.6526 C   0  0  0  0  0  0  0  0  0  0  0  0
   -3.5177    2.1587   -0.2674 C   0  0  2  0  0  0  0  0  0  0  0  0
   -2.1926    2.7325    0.0667 O   0  0  0  0  0  0  0  0  0  0  0  0
   -4.2192    2.4065    1.2048 C   0  0  1  0  0  0  0  0  0  0  0  0
   -5.5130    2.9811    0.6870 O   0  0  0  0  0  0  0  0  0  0  0  0
   -4.8923    0.9842    1.6319 C   0  0  2  0  0  0  0  0  0  0  0  0
   -3.7131    0.2089    2.0650 O   0  0  0  0  0  0  0  0  0  0  0  0
  1  2  1  0
  3  2  1  1
  3  4  1  0
  4  5  1  0
  5  6  1  6
  6  7  1  0
  7  8  2  0
  8  9  1  0
  9 10  1  0
  9 11  2  0
 11 12  1  0
 12 13  1  0
 13 14  2  0
 14 15  1  0
 15 16  2  0
 16 17  1  0
 17 18  2  0
 18 19  1  0
 18 20  1  0
 20 21  2  0
 12 22  2  0
  5 23  1  0
 23 24  1  1
 23 25  1  0
 25 26  1  6
 25 27  1  0
 27 28  1  6
 27  3  1  0
 22  7  1  0
 21 15  1  0
M  END
>  <zinc_id>  (2) 
ZINC000065748638

>  <smiles>  (2) 
OC[C@@H]1O[C@@H](Oc2cc(O)cc(/C=C/c3ccc(O)cc3)c2)[C@H](O)[C@@H](O)[C@@H]1O

$$$$

     RDKit          3D

 20 21  0  0  0  0  0  0  0  0999 V2000
    7.3922    0.7491    0.2842 C   0  0  0  0  0  0  0  0  0  0  0  0
    5.9411    0.7545   -0.0157 C   0  0  0  0  0  0  0  0  0  0  0  0
    5.3946    1.4470   -0.8874 O   0  0  0  0  0  0  0  0  0  0  0  0
    5.1267   -0.0861    0.7430 O   0  0  0  0  0  0  0  0  0  0  0  0
    3.7538   -0.1597    0.5458 C   0  0  0  0  0  0  0  0  0  0  0  0
    2.8625    0.6526    1.2156 C   0  0  0  0  0  0  0  0  0  0  0  0
    1.5012    0.5770    1.0176 C   0  0  0  0  0  0  0  0  0  0  0  0
    0.9641   -0.3278    0.1280 C   0  0  0  0  0  0  0  0  0  0  0  0
   -0.4558   -0.4644   -0.1321 C   0  0  0  0  0  0  0  0  0  0  0  0
   -1.3879    0.2499    0.4429 C   0  0  0  0  0  0  0  0  0  0  0  0
   -2.8079    0.0871    0.1586 C   0  0  0  0  0  0  0  0  0  0  0  0
   -3.2318   -0.8592   -0.7589 C   0  0  0  0  0  0  0  0  0  0  0  0
   -4.5649   -1.0431   -1.0547 C   0  0  0  0  0  0  0  0  0  0  0  0
   -4.9580   -1.9969   -1.9763 O   0  0  0  0  0  0  0  0  0  0  0  0
   -5.5394   -0.2867   -0.4445 C   0  0  0  0  0  0  0  0  0  0  0  0
   -5.1343    0.6622    0.4737 C   0  0  0  0  0  0  0  0  0  0  0  0
   -6.1232    1.4147    1.0788 O   0  0  0  0  0  0  0  0  0  0  0  0
   -3.7819    0.8449    0.7701 C   0  0  0  0  0  0  0  0  0  0  0  0
    1.8388   -1.1486   -0.5512 C   0  0  0  0  0  0  0  0  0  0  0  0
    3.2102   -1.0666   -0.3464 C   0  0  0  0  0  0  0  0  0  0  0  0
  1  2  1  0
  2  3  2  0
  2  4  1  0
  4  5  1  0
  5  6  2  0
  6  7  1  0
  7  8  2  0
  8  9  1  0
  9 10  2  0
 10 11  1  0
 11 12  2  0
 12 13  1  0
 13 14  1  0
 13 15  2  0
 15 16  1  0
 16 17  1  0
 16 18  2  0
  8 19  1  0
 19 20  2  0
 20  5  1  0
 18 11  1  0
M  END
>  <zinc_id>  (3) 
ZINC000008700332

>  <smiles>  (3) 
CC(=O)Oc1ccc(/C=C/c2cc(O)cc(O)c2)cc1

$$$$

     RDKit          3D

 24 26  0  0  0  0  0  0  0  0999 V2000
    7.5293    0.5567    0.3009 C   0  0  0  0  0  0  0  0  0  0  0  0
    6.5349   -0.4412    0.4222 O   0  0  0  0  0  0  0  0  0  0  0  0
    5.1764   -0.0881    0.3149 C   0  0  0  0  0  0  0  0  0  0  0  0
    4.7884    1.2145    0.0930 C   0  0  0  0  0  0  0  0  0  0  0  0
    3.4418    1.5267   -0.0073 C   0  0  0  0  0  0  0  0  0  0  0  0
    2.4603    0.5686    0.1081 C   0  0  0  0  0  0  0  0  0  0  0  0
    1.0341    0.9256   -0.0024 C   0  0  0  0  0  0  0  0  0  0  0  0
    0.1375   -0.0397    0.1174 C   0  0  0  0  0  0  0  0  0  0  0  0
   -1.2950    0.2323    0.0201 C   0  0  0  0  0  0  0  0  0  0  0  0
   -1.8055    1.4949   -0.2000 C   0  0  0  0  0  0  0  0  0  0  0  0
   -3.1677    1.6796   -0.2808 C   0  0  0  0  0  0  0  0  0  0  0  0
   -4.0664    0.6356   -0.1487 C   0  0  0  0  0  0  0  0  0  0  0  0
   -3.5583   -0.6161    0.0695 C   0  0  0  0  0  0  0  0  0  0  0  0
   -4.3976   -1.7160    0.2128 O   0  0  0  0  0  0  0  0  0  0  0  0
   -4.8079   -2.4999   -0.8908 C   0  0  0  0  0  0  0  0  0  0  0  0
   -2.1778   -0.8186    0.1539 C   0  0  0  0  0  0  0  0  0  0  0  0
   -1.6663   -2.0892    0.3753 O   0  0  0  0  0  0  0  0  0  0  0  0
   -1.3546   -2.9432   -0.7317 C   0  0  0  0  0  0  0  0  0  0  0  0
   -5.3490    1.1549   -0.2798 O   0  0  0  0  0  0  0  0  0  0  0  0
   -5.2423    2.5574   -0.3274 C   0  0  0  0  0  0  0  0  0  0  0  0
   -3.8757    2.8595   -0.4952 O   0  0  0  0  0  0  0  0  0  0  0  0
    2.8766   -0.7281    0.3301 C   0  0  0  0  0  0  0  0  0  0  0  0
    4.2048   -1.0527    0.4318 C   0  0  0  0  0  0  0  0  0  0  0  0
    4.5799   -2.3737    0.6560 O   0  0  0  0  0  0  0  0  0  0  0  0
  1  2  1  0
  2  3  1  0
  3  4  2  0
  4  5  1  0
  5  6  2  0
  6  7  1  0
  7  8  2  0
  8  9  1  0
  9 10  2  0
 10 11  1  0
 11 12  2  0
 12 13  1  0
 13 14  1  0
 14 15  1  0
 13 16  2  0
 16 17  1  0
 17 18  1  0
 12 19  1  0
 19 20  1  0
 20 21  1  0
  6 22  1  0
 22 23  2  0
 23 24  1  0
 23  3  1  0
 16  9  1  0
 21 11  1  0
M  END
>  <zinc_id>  (4) 
ZINC000066258987

>  <smiles>  (4) 
COc1ccc(/C=C/c2cc3c(c(OC)c2OC)OCO3)cc1O

$$$$

     RDKit          3D

 21 22  0  0  0  0  0  0  0  0999 V2000
   -3.0766   -2.6936   -1.9318 C   0  0  0  0  0  0  0  0  0  0  0  0
   -2.0063   -1.9480   -1.3791 O   0  0  0  0  0  0  0  0  0  0  0  0
   -2.2641   -0.8286   -0.6047 C   0  0  0  0  0  0  0  0  0  0  0  0
   -1.2249   -0.1054   -0.0686 C   0  0  0  0  0  0  0  0  0  0  0  0
   -1.3387    0.9961    0.6976 C   0  0  0  0  0  0  0  0  0  0  0  0
   -0.3358    1.8000    1.2889 C   0  0  0  0  0  0  0  0  0  0  0  0
    0.9029    1.6276    1.2052 C   0  0  0  0  0  0  0  0  0  0  0  0
    1.5729    0.5864    0.4976 C   0  0  0  0  0  0  0  0  0  0  0  0
    1.1170   -0.4532   -0.2423 C   0  0  0  0  0  0  0  0  0  0  0  0
    1.8893   -1.3968   -0.8787 C   0  0  0  0  0  0  0  0  0  0  0  0
    3.2679   -1.3332   -0.7934 C   0  0  0  0  0  0  0  0  0  0  0  0
    4.0963   -2.2543   -1.4125 O   0  0  0  0  0  0  0  0  0  0  0  0
    3.7726   -0.2893   -0.0491 C   0  0  0  0  0  0  0  0  0  0  0  0
    5.1615   -0.2291    0.0341 O   0  0  0  0  0  0  0  0  0  0  0  0
    5.7384    0.8200    0.7842 C   0  0  0  0  0  0  0  0  0  0  0  0
    2.9832    0.6397    0.5766 C   0  0  0  0  0  0  0  0  0  0  0  0
   -2.6701    1.3874    0.9316 C   0  0  0  0  0  0  0  0  0  0  0  0
   -3.7327    0.6949    0.4163 C   0  0  0  0  0  0  0  0  0  0  0  0
   -5.0500    1.1254    0.6781 O   0  0  0  0  0  0  0  0  0  0  0  0
   -5.2605    2.2754    1.4753 C   0  0  0  0  0  0  0  0  0  0  0  0
   -3.5423   -0.4215   -0.3580 C   0  0  0  0  0  0  0  0  0  0  0  0
  1  2  1  0
  2  3  1  0
  3  4  2  0
  4  5  1  0
  5  6  1  0
  6  7  2  0
  7  8  1  0
  8  9  2  0
  9 10  1  0
 10 11  2  0
 11 12  1  0
 11 13  1  0
 13 14  1  0
 14 15  1  0
 13 16  2  0
  5 17  2  0
 17 18  1  0
 18 19  1  0
 19 20  1  0
 18 21  2  0
 21  3  1  0
 16  8  1  0
M  END
>  <zinc_id>  (5) 
ZINC000005663472

>  <smiles>  (5) 
COc1cc(/C=C\c2ccc(O)c(OC)c2)cc(OC)c1

$$$$

     RDKit          3D

 18 19  0  0  0  0  0  0  0  0999 V2000
   -5.1863    1.1728    1.3562 C   0  0  0  0  0  0  0  0  0  0  0  0
   -4.6791    0.7044    0.1348 O   0  0  0  0  0  0  0  0  0  0  0  0
   -3.3241    0.4483   -0.0798 C   0  0  0  0  0  0  0  0  0  0  0  0
   -2.9935   -0.0059   -1.3318 C   0  0  0  0  0  0  0  0  0  0  0  0
   -1.6425   -0.2671   -1.5639 C   0  0  0  0  0  0  0  0  0  0  0  0
   -1.2581   -0.7262   -2.8083 O   0  0  0  0  0  0  0  0  0  0  0  0
   -0.7252   -0.0653   -0.5600 C   0  0  0  0  0  0  0  0  0  0  0  0
   -1.0131    0.3760    0.6707 C   0  0  0  0  0  0  0  0  0  0  0  0
   -0.2379    0.6483    1.8308 C   0  0  0  0  0  0  0  0  0  0  0  0
    0.9868    0.5176    1.9454 C   0  0  0  0  0  0  0  0  0  0  0  0
    1.9061    0.0720    0.9668 C   0  0  0  0  0  0  0  0  0  0  0  0
    3.2800   -0.0039    1.3118 C   0  0  0  0  0  0  0  0  0  0  0  0
    4.2246   -0.4271    0.4127 C   0  0  0  0  0  0  0  0  0  0  0  0
    3.9225   -0.8061   -0.8753 C   0  0  0  0  0  0  0  0  0  0  0  0
    4.9035   -1.2286   -1.7574 O   0  0  0  0  0  0  0  0  0  0  0  0
    2.5794   -0.7354   -1.2234 C   0  0  0  0  0  0  0  0  0  0  0  0
    1.6487   -0.3066   -0.3013 C   0  0  0  0  0  0  0  0  0  0  0  0
   -2.3919    0.6328    0.8776 C   0  0  0  0  0  0  0  0  0  0  0  0
  1  2  1  0
  2  3  1  0
  3  4  2  0
  4  5  1  0
  5  6  1  0
  5  7  2  0
  7  8  1  0
  8  9  1  0
  9 10  2  0
 10 11  1  0
 11 12  2  0
 12 13  1  0
 13 14  2  0
 14 15  1  0
 14 16  1  0
 16 17  2  0
  8 18  2  0
 18  3  1  0
 17 11  1  0
M  END
>  <zinc_id>  (6) 
ZINC000013340993

>  <smiles>  (6) 
COc1cc(O)cc(/C=C\c2ccc(O)cc2)c1

$$$$

     RDKit          3D

 26 27  0  0  0  0  0  0  0  0999 V2000
    6.3508    2.8649   -1.2489 C   0  0  0  0  0  0  0  0  0  0  0  0
    5.3747    1.7810   -0.9719 C   0  0  0  0  0  0  0  0  0  0  0  0
    5.1787    0.8142   -1.7617 O   0  0  0  0  0  0  0  0  0  0  0  0
    4.6430    1.8320    0.2102 O   0  0  0  0  0  0  0  0  0  0  0  0
    3.7120    0.8598    0.5441 C   0  0  0  0  0  0  0  0  0  0  0  0
    4.0600   -0.2602    1.2613 C   0  0  0  0  0  0  0  0  0  0  0  0
    3.1672   -1.2285    1.6020 C   0  0  0  0  0  0  0  0  0  0  0  0
    1.8098   -1.1374    1.2326 C   0  0  0  0  0  0  0  0  0  0  0  0
    0.9857   -2.1969    1.6411 C   0  0  0  0  0  0  0  0  0  0  0  0
   -0.2358   -2.3525    1.4435 C   0  0  0  0  0  0  0  0  0  0  0  0
   -1.1070   -1.4880    0.7489 C   0  0  0  0  0  0  0  0  0  0  0  0
   -2.4522   -1.9149    0.6761 C   0  0  0  0  0  0  0  0  0  0  0  0
   -3.3839   -1.1484    0.0229 C   0  0  0  0  0  0  0  0  0  0  0  0
   -4.7075   -1.5343   -0.0680 O   0  0  0  0  0  0  0  0  0  0  0  0
   -5.0802   -2.3091   -1.1581 C   0  0  0  0  0  0  0  0  0  0  0  0
   -6.5113   -2.7552   -1.3027 C   0  0  0  0  0  0  0  0  0  0  0  0
   -4.2232   -2.6298   -2.0109 O   0  0  0  0  0  0  0  0  0  0  0  0
   -3.0358    0.0445   -0.5726 C   0  0  0  0  0  0  0  0  0  0  0  0
   -1.7221    0.5002   -0.5236 C   0  0  0  0  0  0  0  0  0  0  0  0
   -1.3974    1.7021   -1.1296 O   0  0  0  0  0  0  0  0  0  0  0  0
   -1.4691    2.8893   -0.4261 C   0  0  0  0  0  0  0  0  0  0  0  0
   -1.1394    4.2152   -1.0000 C   0  0  0  0  0  0  0  0  0  0  0  0
   -1.8391    2.8404    0.7825 O   0  0  0  0  0  0  0  0  0  0  0  0
   -0.8504   -0.3145    0.1429 C   0  0  0  0  0  0  0  0  0  0  0  0
    1.4944   -0.0349    0.5330 C   0  0  0  0  0  0  0  0  0  0  0  0
    2.3779    0.9609    0.1745 C   0  0  0  0  0  0  0  0  0  0  0  0
  1  2  1  0
  2  3  2  0
  2  4  1  0
  4  5  1  0
  5  6  2  0
  6  7  1  0
  7  8  2  0
  8  9  1  0
  9 10  2  0
 10 11  1  0
 11 12  2  0
 12 13  1  0
 13 14  1  0
 14 15  1  0
 15 16  1  0
 15 17  2  0
 13 18  2  0
 18 19  1  0
 19 20  1  0
 20 21  1  0
 21 22  1  0
 21 23  2  0
 19 24  2  0
  8 25  1  0
 25 26  2  0
 26  5  1  0
 24 11  1  0
M  END
>  <zinc_id>  (7) 
ZINC000013340991

>  <smiles>  (7) 
CC(=O)Oc1ccc(/C=C\c2cc(OC(C)=O)cc(OC(C)=O)c2)cc1

$$$$

     RDKit          3D

 23 25  0  0  0  0  0  0  0  0999 V2000
    4.3274    2.7956    1.1974 C   0  0  0  0  0  0  0  0  0  0  0  0
    4.7230    1.5537    0.6521 O   0  0  0  0  0  0  0  0  0  0  0  0
    3.7268    0.6696    0.2640 C   0  0  0  0  0  0  0  0  0  0  0  0
    4.0429   -0.5568   -0.2741 C   0  0  0  0  0  0  0  0  0  0  0  0
    3.0486   -1.4053   -0.6465 C   0  0  0  0  0  0  0  0  0  0  0  0
    1.6724   -1.1078   -0.5160 C   0  0  0  0  0  0  0  0  0  0  0  0
    0.7737   -2.1481   -0.9416 C   0  0  0  0  0  0  0  0  0  0  0  0
    1.3213   -3.4392   -1.3967 C   0  0  0  0  0  0  0  0  0  0  0  0
    1.7643   -4.4432   -1.7583 N   0  0  0  0  0  0  0  0  0  0  0  0
   -0.4899   -1.9847   -0.9350 C   0  0  0  0  0  0  0  0  0  0  0  0
   -1.2195   -0.8488   -0.5501 C   0  0  0  0  0  0  0  0  0  0  0  0
   -2.2844   -0.9807    0.3569 C   0  0  0  0  0  0  0  0  0  0  0  0
   -3.0800    0.0638    0.7402 C   0  0  0  0  0  0  0  0  0  0  0  0
   -4.1366   -0.0845    1.6444 O   0  0  0  0  0  0  0  0  0  0  0  0
   -4.3731   -1.3923    2.1750 C   0  0  0  0  0  0  0  0  0  0  0  0
   -2.8470    1.3265    0.2247 C   0  0  0  0  0  0  0  0  0  0  0  0
   -1.8110    1.5012   -0.6696 C   0  0  0  0  0  0  0  0  0  0  0  0
   -1.0328    0.4207   -1.0296 C   0  0  0  0  0  0  0  0  0  0  0  0
   -1.8239    2.8563   -1.0076 O   0  0  0  0  0  0  0  0  0  0  0  0
   -2.5995    3.5698   -0.0756 C   0  0  0  0  0  0  0  0  0  0  0  0
   -3.4724    2.5596    0.4199 O   0  0  0  0  0  0  0  0  0  0  0  0
    1.3905    0.0991    0.0135 C   0  0  0  0  0  0  0  0  0  0  0  0
    2.3792    0.9755    0.3982 C   0  0  0  0  0  0  0  0  0  0  0  0
  1  2  1  0
  2  3  1  0
  3  4  2  0
  4  5  1  0
  5  6  2  0
  6  7  1  0
  7  8  1  0
  8  9  3  0
  7 10  2  0
 10 11  1  0
 11 12  2  0
 12 13  1  0
 13 14  1  0
 14 15  1  0
 13 16  2  0
 16 17  1  0
 17 18  2  0
 17 19  1  0
 19 20  1  0
 20 21  1  0
  6 22  1  0
 22 23  2  0
 23  3  1  0
 18 11  1  0
 21 16  1  0
M  END
>  <zinc_id>  (8) 
ZINC000096137280

>  <smiles>  (8) 
COc1ccc(/C(C#N)=C\c2cc(OC)c3c(c2)OCO3)cc1

$$$$

     RDKit          3D

 24 26  0  0  0  0  0  0  0  0999 V2000
    5.1959    2.2475   -0.5917 C   0  0  0  0  0  0  0  0  0  0  0  0
    5.3175    1.0563    0.1608 O   0  0  0  0  0  0  0  0  0  0  0  0
    4.1705    0.3413    0.4427 C   0  0  0  0  0  0  0  0  0  0  0  0
    2.9211    0.7730    0.0022 C   0  0  0  0  0  0  0  0  0  0  0  0
    1.7784    0.0755    0.2739 C   0  0  0  0  0  0  0  0  0  0  0  0
    1.7948   -1.0656    0.9808 C   0  0  0  0  0  0  0  0  0  0  0  0
    0.7492   -1.9579    1.3863 C   0  0  0  0  0  0  0  0  0  0  0  0
   -0.4588   -1.8154    1.1302 C   0  0  0  0  0  0  0  0  0  0  0  0
   -1.0759   -0.7706    0.3991 C   0  0  0  0  0  0  0  0  0  0  0  0
   -0.5742    0.3339   -0.2133 C   0  0  0  0  0  0  0  0  0  0  0  0
   -1.3099    1.2757   -0.8973 C   0  0  0  0  0  0  0  0  0  0  0  0
   -2.6794    1.1236   -0.9940 C   0  0  0  0  0  0  0  0  0  0  0  0
   -3.2253    0.0197   -0.3882 C   0  0  0  0  0  0  0  0  0  0  0  0
   -4.5971   -0.1390   -0.4811 O   0  0  0  0  0  0  0  0  0  0  0  0
   -5.4020    0.4416    0.5375 C   0  0  0  0  0  0  0  0  0  0  0  0
   -2.4758   -0.9017    0.2852 C   0  0  0  0  0  0  0  0  0  0  0  0
   -3.0893   -1.9849    0.8688 O   0  0  0  0  0  0  0  0  0  0  0  0
   -3.2755   -3.1967    0.1585 C   0  0  0  0  0  0  0  0  0  0  0  0
   -3.2398    2.1861   -1.7282 O   0  0  0  0  0  0  0  0  0  0  0  0
   -2.2098    3.1479   -1.8533 C   0  0  0  0  0  0  0  0  0  0  0  0
   -1.0088    2.4497   -1.5804 O   0  0  0  0  0  0  0  0  0  0  0  0
    3.0643   -1.5137    1.4342 C   0  0  0  0  0  0  0  0  0  0  0  0
    4.2026   -0.8280    1.1692 C   0  0  0  0  0  0  0  0  0  0  0  0
    5.4272   -1.2982    1.6300 O   0  0  0  0  0  0  0  0  0  0  0  0
  1  2  1  0
  2  3  1  0
  3  4  2  0
  4  5  1  0
  5  6  2  0
  6  7  1  0
  7  8  2  0
  8  9  1  0
  9 10  2  0
 10 11  1  0
 11 12  2  0
 12 13  1  0
 13 14  1  0
 14 15  1  0
 13 16  2  0
 16 17  1  0
 17 18  1  0
 12 19  1  0
 19 20  1  0
 20 21  1  0
  6 22  1  0
 22 23  2  0
 23 24  1  0
 23  3  1  0
 16  9  1  0
 21 11  1  0
M  END
>  <zinc_id>  (9) 
ZINC000066088597

>  <smiles>  (9) 
COc1ccc(/C=C\c2cc3c(c(OC)c2OC)OCO3)cc1O

$$$$

     RDKit          3D

 28 30  0  0  0  0  0  0  0  0999 V2000
   -6.6932    2.8677   -0.6910 O   0  0  0  0  0  0  0  0  0  0  0  0
   -7.0257    1.5526   -0.5339 C   0  0  0  0  0  0  0  0  0  0  0  0
   -5.6758    0.6896   -0.9156 C   0  0  1  0  0  0  0  0  0  0  0  0
   -4.8445    1.3228    0.1557 O   0  0  0  0  0  0  0  0  0  0  0  0
   -3.5415    0.6121   -0.2791 C   0  0  1  0  0  0  0  0  0  0  0  0
   -2.7286    1.4369    0.7049 O   0  0  0  0  0  0  0  0  0  0  0  0
   -1.3814    1.1704    0.5948 C   0  0  0  0  0  0  0  0  0  0  0  0
   -0.7895    0.3227   -0.3017 C   0  0  0  0  0  0  0  0  0  0  0  0
    0.5661    0.1142   -0.3433 C   0  0  0  0  0  0  0  0  0  0  0  0
    1.4521    0.7340    0.5072 C   0  0  0  0  0  0  0  0  0  0  0  0
    2.9008    0.5041    0.4545 C   0  0  0  0  0  0  0  0  0  0  0  0
    3.5137   -0.2823   -0.3678 C   0  0  0  0  0  0  0  0  0  0  0  0
    4.9576   -0.5080   -0.4162 C   0  0  0  0  0  0  0  0  0  0  0  0
    5.4579   -1.3810   -1.3557 C   0  0  0  0  0  0  0  0  0  0  0  0
    6.8089   -1.6661   -1.4869 C   0  0  0  0  0  0  0  0  0  0  0  0
    7.3019   -2.5489   -2.4388 O   0  0  0  0  0  0  0  0  0  0  0  0
    7.6945   -1.0404   -0.6296 C   0  0  0  0  0  0  0  0  0  0  0  0
    7.2343   -0.1620    0.3220 C   0  0  0  0  0  0  0  0  0  0  0  0
    8.0858    0.4873    1.2017 O   0  0  0  0  0  0  0  0  0  0  0  0
    5.8714    0.0931    0.4166 C   0  0  0  0  0  0  0  0  0  0  0  0
    0.8683    1.5885    1.4128 C   0  0  0  0  0  0  0  0  0  0  0  0
   -0.4888    1.8089    1.4680 C   0  0  0  0  0  0  0  0  0  0  0  0
   -3.8648   -0.5968    0.9197 C   0  0  2  0  0  0  0  0  0  0  0  0
   -2.6462   -1.3545    0.5788 O   0  0  0  0  0  0  0  0  0  0  0  0
   -4.7829   -1.4578   -0.2422 C   0  0  1  0  0  0  0  0  0  0  0  0
   -5.1030   -2.5359    0.7498 O   0  0  0  0  0  0  0  0  0  0  0  0
   -6.1583   -0.5644    0.1638 C   0  0  2  0  0  0  0  0  0  0  0  0
   -6.9891   -1.2067   -0.8872 O   0  0  0  0  0  0  0  0  0  0  0  0
  1  2  1  0
  3  2  1  1
  3  4  1  0
  4  5  1  0
  5  6  1  1
  6  7  1  0
  7  8  2  0
  8  9  1  0
  9 10  2  0
 10 11  1  0
 11 12  2  0
 12 13  1  0
 13 14  2  0
 14 15  1  0
 15 16  1  0
 15 17  2  0
 17 18  1  0
 18 19  1  0
 18 20  2  0
 10 21  1  0
 21 22  2  0
  5 23  1  0
 23 24  1  6
 23 25  1  0
 25 26  1  1
 25 27  1  0
 27 28  1  6
 27  3  1  0
 22  7  1  0
 20 13  1  0
M  END
>  <zinc_id>  (10) 
ZINC000031159448

>  <smiles>  (10) 
OC[C@H]1O[C@@H](Oc2ccc(/C=C/c3cc(O)cc(O)c3)cc2)[C@H](O)[C@@H](O)[C@@H]1O

$$$$

     RDKit          3D

 24 25  0  0  0  0  0  0  0  0999 V2000
    8.1500   -0.8511   -0.5329 C   0  0  0  0  0  0  0  0  0  0  0  0
    6.9734   -1.0792    0.1798 O   0  0  0  0  0  0  0  0  0  0  0  0
    6.9405   -0.1537    1.2400 C   0  0  0  0  0  0  0  0  0  0  0  0
    5.7710   -0.3193    2.0167 O   0  0  0  0  0  0  0  0  0  0  0  0
    4.5049   -0.1684    1.4221 C   0  0  0  0  0  0  0  0  0  0  0  0
    4.3659    0.1406    0.0855 C   0  0  0  0  0  0  0  0  0  0  0  0
    3.1132    0.2825   -0.4705 C   0  0  0  0  0  0  0  0  0  0  0  0
    1.9550    0.1247    0.2718 C   0  0  0  0  0  0  0  0  0  0  0  0
    0.6355    0.2823   -0.3494 C   0  0  0  0  0  0  0  0  0  0  0  0
   -0.4232    0.1155    0.4271 C   0  0  0  0  0  0  0  0  0  0  0  0
   -1.7824    0.2341   -0.0226 C   0  0  0  0  0  0  0  0  0  0  0  0
   -2.1072    0.5375   -1.3255 C   0  0  0  0  0  0  0  0  0  0  0  0
   -3.4204    0.6461   -1.7342 C   0  0  0  0  0  0  0  0  0  0  0  0
   -3.7527    0.9544   -3.0580 O   0  0  0  0  0  0  0  0  0  0  0  0
   -2.6809    1.1557   -3.9850 C   0  0  0  0  0  0  0  0  0  0  0  0
   -4.4685    0.4549   -0.8522 C   0  0  0  0  0  0  0  0  0  0  0  0
   -5.7870    0.5644   -1.2641 O   0  0  0  0  0  0  0  0  0  0  0  0
   -6.5064    1.7810   -1.2269 C   0  0  0  0  0  0  0  0  0  0  0  0
   -4.1131    0.1510    0.4515 C   0  0  0  0  0  0  0  0  0  0  0  0
   -5.1703   -0.0467    1.3619 O   0  0  0  0  0  0  0  0  0  0  0  0
   -4.8606   -0.3608    2.7123 C   0  0  0  0  0  0  0  0  0  0  0  0
   -2.8060    0.0399    0.8713 C   0  0  0  0  0  0  0  0  0  0  0  0
    2.1068   -0.1843    1.6078 C   0  0  0  0  0  0  0  0  0  0  0  0
    3.3623   -0.3285    2.1736 C   0  0  0  0  0  0  0  0  0  0  0  0
  1  2  1  0
  2  3  1  0
  3  4  1  0
  4  5  1  0
  5  6  2  0
  6  7  1  0
  7  8  2  0
  8  9  1  0
  9 10  2  0
 10 11  1  0
 11 12  2  0
 12 13  1  0
 13 14  1  0
 14 15  1  0
 13 16  2  0
 16 17  1  0
 17 18  1  0
 16 19  1  0
 19 20  1  0
 20 21  1  0
 19 22  2  0
  8 23  1  0
 23 24  2  0
 24  5  1  0
 22 11  1  0
M  END
>  <zinc_id>  (11) 
ZINC001857794654

>  <smiles>  (11) 
COCOc1ccc(/C=C/c2cc(OC)c(OC)c(OC)c2)cc1

$$$$

     RDKit          3D

 19 20  0  0  0  0  0  0  0  0999 V2000
    4.6408    2.4802   -0.3648 C   0  0  0  0  0  0  0  0  0  0  0  0
    4.9649    1.1107   -0.2601 O   0  0  0  0  0  0  0  0  0  0  0  0
    3.9191    0.2112   -0.1492 C   0  0  0  0  0  0  0  0  0  0  0  0
    2.5961    0.6007   -0.1377 C   0  0  0  0  0  0  0  0  0  0  0  0
    1.5511   -0.2936   -0.0272 C   0  0  0  0  0  0  0  0  0  0  0  0
    0.1551    0.2001   -0.0221 C   0  0  0  0  0  0  0  0  0  0  0  0
   -0.8772   -0.5819    0.0785 C   0  0  0  0  0  0  0  0  0  0  0  0
   -2.2678   -0.1339    0.0873 C   0  0  0  0  0  0  0  0  0  0  0  0
   -3.2766   -1.0675    0.1999 C   0  0  0  0  0  0  0  0  0  0  0  0
   -4.6157   -0.7428    0.2174 C   0  0  0  0  0  0  0  0  0  0  0  0
   -5.6201   -1.7033    0.3320 O   0  0  0  0  0  0  0  0  0  0  0  0
   -4.9402    0.5936    0.1155 C   0  0  0  0  0  0  0  0  0  0  0  0
   -3.9806    1.5742    0.0006 C   0  0  0  0  0  0  0  0  0  0  0  0
   -4.3537    2.9095   -0.0995 O   0  0  0  0  0  0  0  0  0  0  0  0
   -2.6459    1.1884   -0.0115 C   0  0  0  0  0  0  0  0  0  0  0  0
    1.8509   -1.6198    0.0746 C   0  0  0  0  0  0  0  0  0  0  0  0
    3.1642   -2.0484    0.0667 C   0  0  0  0  0  0  0  0  0  0  0  0
    4.2096   -1.1340   -0.0455 C   0  0  0  0  0  0  0  0  0  0  0  0
    5.5261   -1.5434   -0.0551 O   0  0  0  0  0  0  0  0  0  0  0  0
  1  2  1  0
  2  3  1  0
  3  4  2  0
  4  5  1  0
  5  6  1  0
  6  7  2  0
  7  8  1  0
  8  9  2  0
  9 10  1  0
 10 11  1  0
 10 12  2  0
 12 13  1  0
 13 14  1  0
 13 15  2  0
  5 16  2  0
 16 17  1  0
 17 18  2  0
 18 19  1  0
 18  3  1  0
 15  8  1  0
M  END
>  <zinc_id>  (12) 
ZINC000013541228

>  <smiles>  (12) 
COc1cc(/C=C/c2cc(O)cc(O)c2)ccc1O

$$$$

     RDKit          3D

 23 24  0  0  0  0  0  0  0  0999 V2000
    4.6782    3.0267    0.3707 C   0  0  0  0  0  0  0  0  0  0  0  0
    4.9128    1.6629    0.1525 O   0  0  0  0  0  0  0  0  0  0  0  0
    3.8977    0.7181    0.0454 C   0  0  0  0  0  0  0  0  0  0  0  0
    2.5615    1.0610    0.1482 C   0  0  0  0  0  0  0  0  0  0  0  0
    1.6238    0.0601    0.0296 C   0  0  0  0  0  0  0  0  0  0  0  0
    1.8678   -1.2489   -0.1805 C   0  0  0  0  0  0  0  0  0  0  0  0
    1.0609   -2.4017   -0.3273 C   0  0  0  0  0  0  0  0  0  0  0  0
   -0.1799   -2.4673   -0.2911 C   0  0  0  0  0  0  0  0  0  0  0  0
   -1.0634   -1.3623   -0.0884 C   0  0  0  0  0  0  0  0  0  0  0  0
   -0.8464   -0.0427    0.1060 C   0  0  0  0  0  0  0  0  0  0  0  0
   -1.8154    0.9157    0.2894 C   0  0  0  0  0  0  0  0  0  0  0  0
   -1.5731    2.2636    0.4872 O   0  0  0  0  0  0  0  0  0  0  0  0
   -0.2906    2.8042    0.5222 C   0  0  0  0  0  0  0  0  0  0  0  0
   -3.1722    0.5521    0.2843 C   0  0  0  0  0  0  0  0  0  0  0  0
   -4.1660    1.4985    0.4667 O   0  0  0  0  0  0  0  0  0  0  0  0
   -4.7620    2.2060   -0.6182 C   0  0  0  0  0  0  0  0  0  0  0  0
   -3.4247   -0.7839    0.0887 C   0  0  0  0  0  0  0  0  0  0  0  0
   -4.7589   -1.1680    0.0796 O   0  0  0  0  0  0  0  0  0  0  0  0
   -5.1366   -2.5244   -0.1145 C   0  0  0  0  0  0  0  0  0  0  0  0
   -2.4353   -1.7087   -0.0903 C   0  0  0  0  0  0  0  0  0  0  0  0
    3.2442   -1.5430   -0.2773 C   0  0  0  0  0  0  0  0  0  0  0  0
    4.2064   -0.5947   -0.1677 C   0  0  0  0  0  0  0  0  0  0  0  0
    5.5710   -0.9234   -0.2694 O   0  0  0  0  0  0  0  0  0  0  0  0
  1  2  1  0
  2  3  1  0
  3  4  2  0
  4  5  1  0
  5  6  2  0
  6  7  1  0
  7  8  2  0
  8  9  1  0
  9 10  2  0
 10 11  1  0
 11 12  1  0
 12 13  1  0
 11 14  2  0
 14 15  1  0
 15 16  1  0
 14 17  1  0
 17 18  1  0
 18 19  1  0
 17 20  2  0
  6 21  1  0
 21 22  2  0
 22 23  1  0
 22  3  1  0
 20  9  1  0
M  END
>  <zinc_id>  (13) 
ZINC000013452167

>  <smiles>  (13) 
COc1ccc(/C=C\c2cc(OC)c(OC)c(OC)c2)cc1O

$$$$

     RDKit          3D

 27 29  0  0  0  0  0  0  0  0999 V2000
    3.3113    1.2282    3.5303 C   0  0  0  0  0  0  0  0  0  0  0  0
    3.6327    0.3629    2.4661 O   0  0  0  0  0  0  0  0  0  0  0  0
    2.8797    0.3483    1.3025 C   0  0  0  0  0  0  0  0  0  0  0  0
    1.8078    1.1897    1.1852 C   0  0  0  0  0  0  0  0  0  0  0  0
    1.0019    1.2314    0.0395 C   0  0  0  0  0  0  0  0  0  0  0  0
   -0.0654    2.1783   -0.0282 C   0  0  0  0  0  0  0  0  0  0  0  0
   -1.3170    1.9408   -0.2710 C   0  0  0  0  0  0  0  0  0  0  0  0
   -2.2570    3.0090   -0.3117 O   0  0  0  0  0  0  0  0  0  0  0  0
   -2.8919    3.3735    0.8583 C   0  0  0  0  0  0  0  0  0  0  0  0
   -3.8781    4.4941    0.8207 C   0  0  0  0  0  0  0  0  0  0  0  0
   -2.6306    2.7554    1.9428 O   0  0  0  0  0  0  0  0  0  0  0  0
   -1.7838    0.5871   -0.4970 C   0  0  0  0  0  0  0  0  0  0  0  0
   -3.1359    0.4215   -0.8323 C   0  0  0  0  0  0  0  0  0  0  0  0
   -3.6391   -0.8449   -1.0272 C   0  0  0  0  0  0  0  0  0  0  0  0
   -2.8431   -1.9843   -0.9012 C   0  0  0  0  0  0  0  0  0  0  0  0
   -1.5166   -1.8383   -0.5732 C   0  0  0  0  0  0  0  0  0  0  0  0
   -1.0487   -0.5585   -0.3865 C   0  0  0  0  0  0  0  0  0  0  0  0
   -0.9037   -3.0723   -0.4968 O   0  0  0  0  0  0  0  0  0  0  0  0
   -1.9469   -4.0558   -0.5005 C   0  0  0  0  0  0  0  0  0  0  0  0
   -3.0570   -3.3479   -1.0310 O   0  0  0  0  0  0  0  0  0  0  0  0
    1.3854    0.3501   -0.9568 C   0  0  0  0  0  0  0  0  0  0  0  0
    2.4468   -0.5090   -0.8877 C   0  0  0  0  0  0  0  0  0  0  0  0
    2.8058   -1.3793   -1.9019 O   0  0  0  0  0  0  0  0  0  0  0  0
    2.0303   -1.3958   -3.1046 C   0  0  0  0  0  0  0  0  0  0  0  0
    3.1908   -0.4903    0.2725 C   0  0  0  0  0  0  0  0  0  0  0  0
    4.2681   -1.3415    0.3825 O   0  0  0  0  0  0  0  0  0  0  0  0
    4.1543   -2.6525    0.9073 C   0  0  0  0  0  0  0  0  0  0  0  0
  1  2  1  0
  2  3  1  0
  3  4  2  0
  4  5  1  0
  5  6  1  0
  6  7  2  0
  7  8  1  0
  8  9  1  0
  9 10  1  0
  9 11  2  0
  7 12  1  0
 12 13  2  0
 13 14  1  0
 14 15  2  0
 15 16  1  0
 16 17  2  0
 16 18  1  0
 18 19  1  0
 19 20  1  0
  5 21  2  0
 21 22  1  0
 22 23  1  0
 23 24  1  0
 22 25  2  0
 25 26  1  0
 26 27  1  0
 25  3  1  0
 17 12  1  0
 20 15  1  0
M  END
>  <zinc_id>  (14) 
ZINC000005663728

>  <smiles>  (14) 
COc1cc(/C=C(/OC(C)=O)c2ccc3c(c2)OCO3)cc(OC)c1OC

$$$$

     RDKit          3D

 26 27  0  0  0  0  0  0  0  0999 V2000
    8.6216   -1.5177    0.8036 C   0  0  0  0  0  0  0  0  0  0  0  0
    7.1325   -1.3640    0.8511 C   0  0  0  0  0  0  0  0  0  0  0  0
    6.5326   -1.0483    1.9245 O   0  0  0  0  0  0  0  0  0  0  0  0
    6.3342   -1.5573   -0.2680 O   0  0  0  0  0  0  0  0  0  0  0  0
    4.9604   -1.4136   -0.2161 C   0  0  0  0  0  0  0  0  0  0  0  0
    4.0823   -2.4305    0.0774 C   0  0  0  0  0  0  0  0  0  0  0  0
    2.7183   -2.2687    0.1244 C   0  0  0  0  0  0  0  0  0  0  0  0
    2.1791   -1.0368   -0.1312 C   0  0  0  0  0  0  0  0  0  0  0  0
    0.7207   -0.8649   -0.0806 C   0  0  0  0  0  0  0  0  0  0  0  0
    0.1305    0.2774   -0.3122 C   0  0  0  0  0  0  0  0  0  0  0  0
   -1.3121    0.4890   -0.2720 C   0  0  0  0  0  0  0  0  0  0  0  0
   -2.2235   -0.4919    0.0152 C   0  0  0  0  0  0  0  0  0  0  0  0
   -3.5925   -0.2524    0.0442 C   0  0  0  0  0  0  0  0  0  0  0  0
   -4.4858   -1.2733    0.3397 O   0  0  0  0  0  0  0  0  0  0  0  0
   -5.0436   -2.0941   -0.6183 C   0  0  0  0  0  0  0  0  0  0  0  0
   -5.9867   -3.1541   -0.1952 C   0  0  0  0  0  0  0  0  0  0  0  0
   -4.7394   -1.9246   -1.8295 O   0  0  0  0  0  0  0  0  0  0  0  0
   -4.0065    1.0456   -0.2350 C   0  0  0  0  0  0  0  0  0  0  0  0
   -3.1251    2.0536   -0.5267 C   0  0  0  0  0  0  0  0  0  0  0  0
   -3.5043    3.3592   -0.8099 O   0  0  0  0  0  0  0  0  0  0  0  0
   -3.6212    4.2859    0.2151 C   0  0  0  0  0  0  0  0  0  0  0  0
   -4.0280    5.7044   -0.0508 C   0  0  0  0  0  0  0  0  0  0  0  0
   -3.3755    3.9033    1.3817 O   0  0  0  0  0  0  0  0  0  0  0  0
   -1.7794    1.7516   -0.5395 C   0  0  0  0  0  0  0  0  0  0  0  0
    3.0190    0.0067   -0.4285 C   0  0  0  0  0  0  0  0  0  0  0  0
    4.3922   -0.1842   -0.4693 C   0  0  0  0  0  0  0  0  0  0  0  0
  1  2  1  0
  2  3  2  0
  2  4  1  0
  4  5  1  0
  5  6  2  0
  6  7  1  0
  7  8  2  0
  8  9  1  0
  9 10  2  0
 10 11  1  0
 11 12  2  0
 12 13  1  0
 13 14  1  0
 14 15  1  0
 15 16  1  0
 15 17  2  0
 13 18  2  0
 18 19  1  0
 19 20  1  0
 20 21  1  0
 21 22  1  0
 21 23  2  0
 19 24  2  0
  8 25  1  0
 25 26  2  0
 26  5  1  0
 24 11  1  0
M  END
>  <zinc_id>  (15) 
ZINC000003978778

>  <smiles>  (15) 
CC(=O)Oc1ccc(/C=C/c2cc(OC(C)=O)cc(OC(C)=O)c2)cc1

$$$$

     RDKit          3D

 28 30  0  0  0  0  0  0  0  0999 V2000
   -4.6455   -1.9324   -1.5068 O   0  0  0  0  0  0  0  0  0  0  0  0
   -3.9755   -0.9217   -2.1684 C   0  0  0  0  0  0  0  0  0  0  0  0
   -4.7974    0.4415   -1.8365 C   0  0  1  0  0  0  0  0  0  0  0  0
   -4.5810    0.3125   -0.3497 O   0  0  0  0  0  0  0  0  0  0  0  0
   -3.0834    0.1919   -0.3143 C   0  0  2  0  0  0  0  0  0  0  0  0
   -2.9960   -0.4609    1.0671 O   0  0  0  0  0  0  0  0  0  0  0  0
   -1.6781   -0.6942    1.3698 C   0  0  0  0  0  0  0  0  0  0  0  0
   -1.4819   -1.2806    2.5930 C   0  0  0  0  0  0  0  0  0  0  0  0
   -0.2495   -1.5946    3.0808 C   0  0  0  0  0  0  0  0  0  0  0  0
   -0.0704   -2.1954    4.3375 O   0  0  0  0  0  0  0  0  0  0  0  0
    0.8225   -1.2994    2.2914 C   0  0  0  0  0  0  0  0  0  0  0  0
    0.7005   -0.7091    1.0488 C   0  0  0  0  0  0  0  0  0  0  0  0
    1.9121   -0.4298    0.2726 C   0  0  0  0  0  0  0  0  0  0  0  0
    3.1095   -0.7004    0.6724 C   0  0  0  0  0  0  0  0  0  0  0  0
    4.3656   -0.4674   -0.0116 C   0  0  0  0  0  0  0  0  0  0  0  0
    4.4833    0.1065   -1.2543 C   0  0  0  0  0  0  0  0  0  0  0  0
    5.7241    0.3041   -1.8607 C   0  0  0  0  0  0  0  0  0  0  0  0
    6.8639   -0.0884   -1.1923 C   0  0  0  0  0  0  0  0  0  0  0  0
    8.0839    0.1341   -1.8486 O   0  0  0  0  0  0  0  0  0  0  0  0
    6.7819   -0.6611    0.0423 C   0  0  0  0  0  0  0  0  0  0  0  0
    5.5399   -0.8377    0.6042 C   0  0  0  0  0  0  0  0  0  0  0  0
   -0.5666   -0.4219    0.6235 C   0  0  0  0  0  0  0  0  0  0  0  0
   -2.7093    1.7579    0.2453 C   0  0  2  0  0  0  0  0  0  0  0  0
   -3.7342    1.9170    1.3135 O   0  0  0  0  0  0  0  0  0  0  0  0
   -3.6648    2.5020   -0.9238 C   0  0  1  0  0  0  0  0  0  0  0  0
   -2.5179    3.3481   -1.3668 O   0  0  0  0  0  0  0  0  0  0  0  0
   -3.4422    1.4110   -2.1993 C   0  0  2  0  0  0  0  0  0  0  0  0
   -4.1933    2.2686   -3.1485 O   0  0  0  0  0  0  0  0  0  0  0  0
  1  2  1  0
  3  2  1  6
  3  4  1  0
  4  5  1  0
  5  6  1  1
  6  7  1  0
  7  8  2  0
  8  9  1  0
  9 10  1  0
  9 11  2  0
 11 12  1  0
 12 13  1  0
 13 14  2  0
 14 15  1  0
 15 16  2  0
 16 17  1  0
 17 18  2  0
 18 19  1  0
 18 20  1  0
 20 21  2  0
 12 22  2  0
  5 23  1  0
 23 24  1  1
 23 25  1  0
 25 26  1  6
 25 27  1  0
 27 28  1  6
 27  3  1  0
 22  7  1  0
 21 15  1  0
M  END
>  <zinc_id>  (16) 
ZINC000039205864

>  <smiles>  (16) 
OC[C@H]1O[C@H](Oc2cc(O)cc(/C=C/c3ccc(O)cc3)c2)[C@H](O)[C@@H](O)[C@@H]1O

$$$$

     RDKit          3D

 19 20  0  0  0  0  0  0  0  0999 V2000
    5.3774    0.3488    1.9266 C   0  0  0  0  0  0  0  0  0  0  0  0
    4.0076    0.0396    2.1014 O   0  0  0  0  0  0  0  0  0  0  0  0
    3.1079    0.1147    1.0494 C   0  0  0  0  0  0  0  0  0  0  0  0
    3.4785    0.4895   -0.2193 C   0  0  0  0  0  0  0  0  0  0  0  0
    2.6125    0.5719   -1.2744 C   0  0  0  0  0  0  0  0  0  0  0  0
    1.2440    0.2647   -1.1069 C   0  0  0  0  0  0  0  0  0  0  0  0
    0.4374    0.3815   -2.2573 C   0  0  0  0  0  0  0  0  0  0  0  0
   -0.7851    0.1666   -2.3580 C   0  0  0  0  0  0  0  0  0  0  0  0
   -1.6658   -0.2543   -1.3143 C   0  0  0  0  0  0  0  0  0  0  0  0
   -1.4510   -0.5233   -0.0099 C   0  0  0  0  0  0  0  0  0  0  0  0
   -2.3846   -0.9219    0.8964 C   0  0  0  0  0  0  0  0  0  0  0  0
   -1.9999   -1.1559    2.1936 O   0  0  0  0  0  0  0  0  0  0  0  0
   -3.6761   -1.0676    0.4492 C   0  0  0  0  0  0  0  0  0  0  0  0
   -3.9877   -0.8147   -0.8670 C   0  0  0  0  0  0  0  0  0  0  0  0
   -5.3145   -0.9656   -1.3219 O   0  0  0  0  0  0  0  0  0  0  0  0
   -3.0103   -0.4167   -1.7354 C   0  0  0  0  0  0  0  0  0  0  0  0
    0.9035   -0.0995    0.1417 C   0  0  0  0  0  0  0  0  0  0  0  0
    1.7676   -0.1890    1.2251 C   0  0  0  0  0  0  0  0  0  0  0  0
    1.3388   -0.5722    2.4810 O   0  0  0  0  0  0  0  0  0  0  0  0
  1  2  1  0
  2  3  1  0
  3  4  2  0
  4  5  1  0
  5  6  2  0
  6  7  1  0
  7  8  2  0
  8  9  1  0
  9 10  2  0
 10 11  1  0
 11 12  1  0
 11 13  2  0
 13 14  1  0
 14 15  1  0
 14 16  2  0
  6 17  1  0
 17 18  2  0
 18 19  1  0
 18  3  1  0
 16  9  1  0
M  END
>  <zinc_id>  (17) 
ZINC000013340290

>  <smiles>  (17) 
COc1ccc(/C=C\c2cc(O)cc(O)c2)cc1O

$$$$

     RDKit          3D

 24 25  0  0  0  0  0  0  0  0999 V2000
    5.4299    2.3679    3.3230 C   0  0  0  0  0  0  0  0  0  0  0  0
    5.7068    2.6324    1.8782 C   0  0  0  0  0  0  0  0  0  0  0  0
    4.7661    3.6047    1.2258 C   0  0  0  0  0  0  0  0  0  0  0  0
    3.4338    3.1996    1.2516 O   0  0  0  0  0  0  0  0  0  0  0  0
    2.9563    2.0331    0.6750 C   0  0  0  0  0  0  0  0  0  0  0  0
    3.7528    1.1340    0.0039 C   0  0  0  0  0  0  0  0  0  0  0  0
    3.2789   -0.0129   -0.5621 C   0  0  0  0  0  0  0  0  0  0  0  0
    1.9057   -0.3724   -0.5010 C   0  0  0  0  0  0  0  0  0  0  0  0
    1.5979   -1.6051   -1.1482 C   0  0  0  0  0  0  0  0  0  0  0  0
    0.4996   -2.1447   -1.2427 C   0  0  0  0  0  0  0  0  0  0  0  0
   -0.7438   -1.6734   -0.7290 C   0  0  0  0  0  0  0  0  0  0  0  0
   -1.0486   -0.5522   -0.0308 C   0  0  0  0  0  0  0  0  0  0  0  0
   -2.3153   -0.2120    0.4137 C   0  0  0  0  0  0  0  0  0  0  0  0
   -2.6009    0.9322    1.1212 O   0  0  0  0  0  0  0  0  0  0  0  0
   -1.6573    1.8961    1.4798 C   0  0  0  0  0  0  0  0  0  0  0  0
   -3.3743   -1.0535    0.1448 C   0  0  0  0  0  0  0  0  0  0  0  0
   -4.6515   -0.7477    0.5719 O   0  0  0  0  0  0  0  0  0  0  0  0
   -5.5546    0.0024   -0.2117 C   0  0  0  0  0  0  0  0  0  0  0  0
   -3.1294   -2.2260   -0.5707 C   0  0  0  0  0  0  0  0  0  0  0  0
   -4.1479   -3.0323   -0.8275 O   0  0  0  0  0  0  0  0  0  0  0  0
   -5.0374   -3.8692   -1.1269 C   0  0  0  0  0  0  0  0  0  0  0  0
   -1.8318   -2.5203   -0.9950 C   0  0  0  0  0  0  0  0  0  0  0  0
    1.1487    0.5297    0.1642 C   0  0  0  0  0  0  0  0  0  0  0  0
    1.6162    1.6898    0.7389 C   0  0  0  0  0  0  0  0  0  0  0  0
  1  2  1  0
  2  3  1  0
  3  4  1  0
  4  5  1  0
  5  6  2  0
  6  7  1  0
  7  8  2  0
  8  9  1  0
  9 10  2  0
 10 11  1  0
 11 12  2  0
 12 13  1  0
 13 14  1  0
 14 15  1  0
 13 16  2  0
 16 17  1  0
 17 18  1  0
 16 19  1  0
 19 20  1  0
 20 21  1  0
 19 22  2  0
  8 23  1  0
 23 24  2  0
 24  5  1  0
 22 11  1  0
M  END
>  <zinc_id>  (18) 
ZINC000013456750

>  <smiles>  (18) 
CCCOc1ccc(/C=C\c2cc(OC)c(OC)c(OC)c2)cc1

$$$$

     RDKit          3D

 20 21  0  0  0  0  0  0  0  0999 V2000
    5.9521    0.7197    1.3538 C   0  0  0  0  0  0  0  0  0  0  0  0
    4.5662    0.8793    1.5847 O   0  0  0  0  0  0  0  0  0  0  0  0
    3.6346    0.3442    0.6754 C   0  0  0  0  0  0  0  0  0  0  0  0
    2.2920    0.5187    0.9319 C   0  0  0  0  0  0  0  0  0  0  0  0
    1.3615   -0.0107    0.0320 C   0  0  0  0  0  0  0  0  0  0  0  0
   -0.0287    0.1950    0.3391 C   0  0  0  0  0  0  0  0  0  0  0  0
   -1.0392   -0.2246   -0.3807 C   0  0  0  0  0  0  0  0  0  0  0  0
   -2.3832    0.0856    0.1008 C   0  0  0  0  0  0  0  0  0  0  0  0
   -2.6139    0.7911    1.2642 C   0  0  0  0  0  0  0  0  0  0  0  0
   -3.8937    1.0722    1.6990 C   0  0  0  0  0  0  0  0  0  0  0  0
   -5.0015    0.6593    0.9879 C   0  0  0  0  0  0  0  0  0  0  0  0
   -6.3006    0.9435    1.4273 O   0  0  0  0  0  0  0  0  0  0  0  0
   -4.7729   -0.0460   -0.1753 C   0  0  0  0  0  0  0  0  0  0  0  0
   -5.9062   -0.4565   -0.8831 O   0  0  0  0  0  0  0  0  0  0  0  0
   -3.4947   -0.3271   -0.6101 C   0  0  0  0  0  0  0  0  0  0  0  0
    1.8391   -0.6816   -1.0681 C   0  0  0  0  0  0  0  0  0  0  0  0
    3.1823   -0.8557   -1.3241 C   0  0  0  0  0  0  0  0  0  0  0  0
    3.5558   -1.5532   -2.4708 O   0  0  0  0  0  0  0  0  0  0  0  0
    4.9497   -1.7170   -2.7084 C   0  0  0  0  0  0  0  0  0  0  0  0
    4.1015   -0.3365   -0.4413 C   0  0  0  0  0  0  0  0  0  0  0  0
  1  2  1  0
  2  3  1  0
  3  4  2  0
  4  5  1  0
  5  6  1  0
  6  7  2  0
  7  8  1  0
  8  9  2  0
  9 10  1  0
 10 11  2  0
 11 12  1  0
 11 13  1  0
 13 14  1  0
 13 15  2  0
  5 16  2  0
 16 17  1  0
 17 18  1  0
 18 19  1  0
 17 20  2  0
 20  3  1  0
 15  8  1  0
M  END
>  <zinc_id>  (19) 
ZINC000027106486

>  <smiles>  (19) 
COc1cc(/C=C/c2ccc(O)c(O)c2)cc(OC)c1

$$$$

     RDKit          3D

 25 26  0  0  0  0  0  0  0  0999 V2000
    5.5083    2.8323   -0.4950 C   0  0  0  0  0  0  0  0  0  0  0  0
    4.1129    2.8648   -0.3694 O   0  0  0  0  0  0  0  0  0  0  0  0
    3.3314    1.7158   -0.2937 C   0  0  0  0  0  0  0  0  0  0  0  0
    3.9651    0.4977   -0.3482 C   0  0  0  0  0  0  0  0  0  0  0  0
    3.2415   -0.6737   -0.2751 C   0  0  0  0  0  0  0  0  0  0  0  0
    1.8443   -0.6845   -0.1436 C   0  0  0  0  0  0  0  0  0  0  0  0
    1.1750   -1.9651   -0.1129 C   0  0  0  0  0  0  0  0  0  0  0  0
   -0.0961   -2.0551    0.0877 C   0  0  0  0  0  0  0  0  0  0  0  0
   -1.0425   -1.0483    0.3092 C   0  0  0  0  0  0  0  0  0  0  0  0
   -0.9547   -0.0418    1.2072 C   0  0  0  0  0  0  0  0  0  0  0  0
   -1.9246    0.9138    1.3794 C   0  0  0  0  0  0  0  0  0  0  0  0
   -1.7835    1.9304    2.3216 O   0  0  0  0  0  0  0  0  0  0  0  0
   -0.6086    1.9898    3.1294 C   0  0  0  0  0  0  0  0  0  0  0  0
   -3.0699    0.8857    0.6160 C   0  0  0  0  0  0  0  0  0  0  0  0
   -4.0305    1.8762    0.8246 O   0  0  0  0  0  0  0  0  0  0  0  0
   -5.0643    1.6500    1.7810 C   0  0  0  0  0  0  0  0  0  0  0  0
   -3.2072   -0.1145   -0.3083 C   0  0  0  0  0  0  0  0  0  0  0  0
   -4.3766   -0.1324   -1.0761 O   0  0  0  0  0  0  0  0  0  0  0  0
   -4.5683   -1.1420   -2.0467 C   0  0  0  0  0  0  0  0  0  0  0  0
   -2.2230   -1.0657   -0.4686 C   0  0  0  0  0  0  0  0  0  0  0  0
    1.9614   -3.1788   -0.3177 N   0  0  0  0  0  4  0  0  0  0  0  0
    2.1806   -3.8650    0.6627 O   0  0  0  0  0  0  0  0  0  0  0  0
    2.3928   -3.4652   -1.5584 O   0  0  0  0  0  1  0  0  0  0  0  0
    1.2672    0.5441   -0.0956 C   0  0  0  0  0  0  0  0  0  0  0  0
    1.9691    1.7316   -0.1662 C   0  0  0  0  0  0  0  0  0  0  0  0
  1  2  1  0
  2  3  1  0
  3  4  2  0
  4  5  1  0
  5  6  2  0
  6  7  1  0
  7  8  2  0
  8  9  1  0
  9 10  2  0
 10 11  1  0
 11 12  1  0
 12 13  1  0
 11 14  2  0
 14 15  1  0
 15 16  1  0
 14 17  1  0
 17 18  1  0
 18 19  1  0
 17 20  2  0
  7 21  1  0
 21 22  2  0
 21 23  1  0
  6 24  1  0
 24 25  2  0
 25  3  1  0
 20  9  1  0
M  CHG  2  21   1  23  -1
M  END
>  <zinc_id>  (20) 
ZINC000017299990

>  <smiles>  (20) 
COc1ccc(/C(=C\c2cc(OC)c(OC)c(OC)c2)[N+](=O)[O-])cc1

$$$$

     RDKit          3D

 17 18  0  0  0  0  0  0  0  0999 V2000
    6.2162   -0.2340    0.0850 O   0  0  0  0  0  0  0  0  0  0  0  0
    4.8264   -0.0984    0.0627 C   0  0  0  0  0  0  0  0  0  0  0  0
    4.2310    1.1453    0.0065 C   0  0  0  0  0  0  0  0  0  0  0  0
    2.8533    1.3178   -0.0171 C   0  0  0  0  0  0  0  0  0  0  0  0
    2.0243    0.2168    0.0162 C   0  0  0  0  0  0  0  0  0  0  0  0
    0.5787    0.3850   -0.0081 C   0  0  0  0  0  0  0  0  0  0  0  0
   -0.2739   -0.5939    0.0200 C   0  0  0  0  0  0  0  0  0  0  0  0
   -1.6918   -0.3288   -0.0077 C   0  0  0  0  0  0  0  0  0  0  0  0
   -2.1403    0.9596   -0.0639 C   0  0  0  0  0  0  0  0  0  0  0  0
   -3.4864    1.2546   -0.0920 C   0  0  0  0  0  0  0  0  0  0  0  0
   -3.9398    2.5438   -0.1483 O   0  0  0  0  0  0  0  0  0  0  0  0
   -4.3772    0.2189   -0.0620 C   0  0  0  0  0  0  0  0  0  0  0  0
   -3.9506   -1.0859   -0.0054 C   0  0  0  0  0  0  0  0  0  0  0  0
   -4.8689   -2.1194    0.0241 O   0  0  0  0  0  0  0  0  0  0  0  0
   -2.5961   -1.3576    0.0218 C   0  0  0  0  0  0  0  0  0  0  0  0
    2.6074   -1.0308    0.0724 C   0  0  0  0  0  0  0  0  0  0  0  0
    3.9877   -1.1930    0.0956 C   0  0  0  0  0  0  0  0  0  0  0  0
  1  2  1  0
  2  3  2  0
  3  4  1  0
  4  5  2  0
  5  6  1  0
  6  7  2  3
  7  8  1  0
  8  9  2  0
  9 10  1  0
 10 11  1  0
 10 12  2  0
 12 13  1  0
 13 14  1  0
 13 15  2  0
  5 16  1  0
 16 17  2  0
 17  2  1  0
 15  8  1  0
M  END
>  <zinc_id>  (21) 
ZINC001857524289

>  <smiles>  (21) 
Oc1ccc(C=Cc2cc(O)cc(O)c2)cc1

$$$$

     RDKit          3D

 28 30  0  0  0  0  0  0  0  0999 V2000
   -5.9786    1.6498   -1.6138 O   0  0  0  0  0  0  0  0  0  0  0  0
   -4.7024    1.1605   -1.7565 C   0  0  0  0  0  0  0  0  0  0  0  0
   -4.8258   -0.4346   -1.1505 C   0  0  1  0  0  0  0  0  0  0  0  0
   -3.3652   -0.6240   -1.3519 O   0  0  0  0  0  0  0  0  0  0  0  0
   -3.1753   -1.9364   -0.6367 C   0  0  1  0  0  0  0  0  0  0  0  0
   -1.6466   -2.0033   -0.9618 O   0  0  0  0  0  0  0  0  0  0  0  0
   -0.8495   -1.0245   -0.3710 C   0  0  0  0  0  0  0  0  0  0  0  0
   -1.4519    0.0587    0.2850 C   0  0  0  0  0  0  0  0  0  0  0  0
   -0.7291    1.0524    0.8760 C   0  0  0  0  0  0  0  0  0  0  0  0
   -1.4734    2.0733    1.5012 O   0  0  0  0  0  0  0  0  0  0  0  0
    0.6092    1.0153    0.8407 C   0  0  0  0  0  0  0  0  0  0  0  0
    1.2721   -0.0729    0.1821 C   0  0  0  0  0  0  0  0  0  0  0  0
    2.6482    0.0939    0.1311 C   0  0  0  0  0  0  0  0  0  0  0  0
    3.6613   -0.6206   -0.0989 C   0  0  0  0  0  0  0  0  0  0  0  0
    4.9820    0.0637   -0.0496 C   0  0  0  0  0  0  0  0  0  0  0  0
    6.1641   -0.5726   -0.1102 C   0  0  0  0  0  0  0  0  0  0  0  0
    7.4122    0.0309   -0.2658 C   0  0  0  0  0  0  0  0  0  0  0  0
    7.4001    1.4509   -0.3676 C   0  0  0  0  0  0  0  0  0  0  0  0
    8.6289    2.0699   -0.5377 O   0  0  0  0  0  0  0  0  0  0  0  0
    6.2351    2.1092   -0.2930 C   0  0  0  0  0  0  0  0  0  0  0  0
    5.0044    1.4594   -0.1365 C   0  0  0  0  0  0  0  0  0  0  0  0
    0.4918   -1.0812   -0.4137 C   0  0  0  0  0  0  0  0  0  0  0  0
   -3.0030   -1.3959    0.9619 C   0  0  2  0  0  0  0  0  0  0  0  0
   -2.9511   -2.8104    1.5021 O   0  0  0  0  0  0  0  0  0  0  0  0
   -4.7512   -1.3792    1.1079 C   0  0  1  0  0  0  0  0  0  0  0  0
   -4.6124   -0.8534    2.5254 O   0  0  0  0  0  0  0  0  0  0  0  0
   -4.7465    0.2050    0.4494 C   0  0  2  0  0  0  0  0  0  0  0  0
   -6.2473    0.3162    0.5649 O   0  0  0  0  0  0  0  0  0  0  0  0
  1  2  1  0
  3  2  1  6
  3  4  1  0
  4  5  1  0
  5  6  1  6
  6  7  1  0
  7  8  2  0
  8  9  1  0
  9 10  1  0
  9 11  2  0
 11 12  1  0
 12 13  1  0
 13 14  2  3
 14 15  1  0
 15 16  2  0
 16 17  1  0
 17 18  2  0
 18 19  1  0
 18 20  1  0
 20 21  2  0
 12 22  2  0
  5 23  1  0
 23 24  1  1
 23 25  1  0
 25 26  1  1
 25 27  1  0
 27 28  1  1
 27  3  1  0
 22  7  1  0
 21 15  1  0
M  END
>  <zinc_id>  (22) 
ZINC001857795423

>  <smiles>  (22) 
OC[C@H]1O[C@@H](Oc2cc(O)cc(C=Cc3ccc(O)cc3)c2)[C@H](O)[C@@H](O)[C@@H]1O

$$$$

     RDKit          3D

 22 23  0  0  0  0  0  0  0  0999 V2000
   -4.4303    3.8486    0.8023 C   0  0  0  0  0  0  0  0  0  0  0  0
   -4.8999    2.5175    0.7287 O   0  0  0  0  0  0  0  0  0  0  0  0
   -4.0386    1.4363    0.5459 C   0  0  0  0  0  0  0  0  0  0  0  0
   -2.6634    1.6440    0.4285 C   0  0  0  0  0  0  0  0  0  0  0  0
   -1.8891    0.5204    0.2505 C   0  0  0  0  0  0  0  0  0  0  0  0
   -0.4426    0.6375    0.1179 C   0  0  0  0  0  0  0  0  0  0  0  0
    0.3469   -0.4099   -0.0547 C   0  0  0  0  0  0  0  0  0  0  0  0
    1.7884   -0.1673   -0.1756 C   0  0  0  0  0  0  0  0  0  0  0  0
    2.3176    1.1048   -0.1132 C   0  0  0  0  0  0  0  0  0  0  0  0
    3.6678    1.3602   -0.2239 C   0  0  0  0  0  0  0  0  0  0  0  0
    4.5628    0.3274   -0.4056 C   0  0  0  0  0  0  0  0  0  0  0  0
    5.9381    0.5576   -0.5210 O   0  0  0  0  0  0  0  0  0  0  0  0
    6.4373    1.8798   -0.4512 C   0  0  0  0  0  0  0  0  0  0  0  0
    4.0361   -0.9446   -0.4682 C   0  0  0  0  0  0  0  0  0  0  0  0
    2.6855   -1.1994   -0.3574 C   0  0  0  0  0  0  0  0  0  0  0  0
    2.1686   -2.4865   -0.4223 O   0  0  0  0  0  0  0  0  0  0  0  0
    2.9995   -3.6164   -0.6065 C   0  0  0  0  0  0  0  0  0  0  0  0
   -2.4386   -0.7385    0.1914 C   0  0  0  0  0  0  0  0  0  0  0  0
   -3.7864   -0.9220    0.3083 C   0  0  0  0  0  0  0  0  0  0  0  0
   -4.3000   -2.2125    0.2427 O   0  0  0  0  0  0  0  0  0  0  0  0
   -3.4645   -3.3192    0.0602 C   0  0  0  0  0  0  0  0  0  0  0  0
   -4.5953    0.1820    0.4879 C   0  0  0  0  0  0  0  0  0  0  0  0
  1  2  1  0
  2  3  1  0
  3  4  2  0
  4  5  1  0
  5  6  1  0
  6  7  2  0
  7  8  1  0
  8  9  2  0
  9 10  1  0
 10 11  2  0
 11 12  1  0
 12 13  1  0
 11 14  1  0
 14 15  2  0
 15 16  1  0
 16 17  1  0
  5 18  2  0
 18 19  1  0
 19 20  1  0
 20 21  1  0
 19 22  2  0
 22  3  1  0
 15  8  1  0
M  END
>  <zinc_id>  (23) 
ZINC000003875137

>  <smiles>  (23) 
COc1cc(/C=C/c2ccc(OC)cc2OC)cc(OC)c1

$$$$

     RDKit          3D

 23 25  0  0  0  0  0  0  0  0999 V2000
    7.0805   -1.4509   -2.3472 C   0  0  0  0  0  0  0  0  0  0  0  0
    6.3548   -0.3454   -1.8614 O   0  0  0  0  0  0  0  0  0  0  0  0
    5.0205   -0.4005   -1.5152 C   0  0  0  0  0  0  0  0  0  0  0  0
    4.3592    0.7436   -1.0380 C   0  0  0  0  0  0  0  0  0  0  0  0
    3.0262    0.6838   -0.6916 C   0  0  0  0  0  0  0  0  0  0  0  0
    2.2765   -0.4610   -0.7882 C   0  0  0  0  0  0  0  0  0  0  0  0
    0.8607   -0.5249   -0.3944 C   0  0  0  0  0  0  0  0  0  0  0  0
    0.1091   -1.7465   -0.5324 C   0  0  0  0  0  0  0  0  0  0  0  0
   -0.5004   -2.7294   -0.6332 N   0  0  0  0  0  0  0  0  0  0  0  0
    0.2606    0.5250    0.1063 C   0  0  0  0  0  0  0  0  0  0  0  0
   -1.1303    0.4594    0.4897 C   0  0  0  0  0  0  0  0  0  0  0  0
   -1.5947    0.9376    1.7018 C   0  0  0  0  0  0  0  0  0  0  0  0
   -2.9434    0.8938    2.0214 C   0  0  0  0  0  0  0  0  0  0  0  0
   -3.4086    1.3779    3.2473 O   0  0  0  0  0  0  0  0  0  0  0  0
   -2.4629    1.9088    4.1515 C   0  0  0  0  0  0  0  0  0  0  0  0
   -3.8241    0.3581    1.0972 C   0  0  0  0  0  0  0  0  0  0  0  0
   -3.3818   -0.1172   -0.0976 C   0  0  0  0  0  0  0  0  0  0  0  0
   -2.0378   -0.0739   -0.4154 C   0  0  0  0  0  0  0  0  0  0  0  0
   -4.4760   -0.6009   -0.8392 O   0  0  0  0  0  0  0  0  0  0  0  0
   -5.5440   -0.6909    0.0632 C   0  0  0  0  0  0  0  0  0  0  0  0
   -5.2071    0.1869    1.1398 O   0  0  0  0  0  0  0  0  0  0  0  0
    2.9144   -1.6047   -1.2601 C   0  0  0  0  0  0  0  0  0  0  0  0
    4.2486   -1.5400   -1.6040 C   0  0  0  0  0  0  0  0  0  0  0  0
  1  2  1  0
  2  3  1  0
  3  4  2  0
  4  5  1  0
  5  6  2  0
  6  7  1  0
  7  8  1  0
  8  9  3  0
  7 10  2  0
 10 11  1  0
 11 12  2  0
 12 13  1  0
 13 14  1  0
 14 15  1  0
 13 16  2  0
 16 17  1  0
 17 18  2  0
 17 19  1  0
 19 20  1  0
 20 21  1  0
  6 22  1  0
 22 23  2  0
 23  3  1  0
 18 11  1  0
 21 16  1  0
M  END
>  <zinc_id>  (24) 
ZINC000066091380

>  <smiles>  (24) 
COc1ccc(/C(C#N)=C/c2cc(OC)c3c(c2)OCO3)cc1

$$$$

     RDKit          3D

 26 29  0  0  0  0  0  0  0  0999 V2000
   -4.1985    3.8760    0.9443 C   0  0  0  0  0  0  0  0  0  0  0  0
   -4.7906    2.6062    0.6343 O   0  0  0  0  0  0  0  0  0  0  0  0
   -3.9819    1.5306    0.3060 C   0  0  0  0  0  0  0  0  0  0  0  0
   -2.6225    1.6169    0.2600 C   0  0  0  0  0  0  0  0  0  0  0  0
   -1.8038    0.5496   -0.0663 C   0  0  0  0  0  0  0  0  0  0  0  0
   -0.3549    0.6957   -0.1001 C   0  0  0  0  0  0  0  0  0  0  0  0
    0.4361   -0.2897    0.2962 C   0  0  0  0  0  0  0  0  0  0  0  0
   -0.1945   -1.4938    0.7550 C   0  0  0  0  0  0  0  0  0  0  0  0
   -0.6934   -2.4770    1.1414 N   0  0  0  0  0  0  0  0  0  0  0  0
    1.8952   -0.1617    0.2703 C   0  0  0  0  0  0  0  0  0  0  0  0
    2.6577   -1.2285    0.6971 C   0  0  0  0  0  0  0  0  0  0  0  0
    4.0492   -1.1786    0.6992 C   0  0  0  0  0  0  0  0  0  0  0  0
    4.8345   -2.2423    1.1247 O   0  0  0  0  0  0  0  0  0  0  0  0
    4.1504   -3.4125    1.5705 C   0  0  0  0  0  0  0  0  0  0  0  0
    4.6874   -0.0371    0.2646 C   0  0  0  0  0  0  0  0  0  0  0  0
    3.9230    1.0399   -0.1663 C   0  0  0  0  0  0  0  0  0  0  0  0
    2.5289    0.9676   -0.1594 C   0  0  0  0  0  0  0  0  0  0  0  0
    4.8274    2.0259   -0.5361 O   0  0  0  0  0  0  0  0  0  0  0  0
    6.1467    1.6667   -0.2009 C   0  0  0  0  0  0  0  0  0  0  0  0
    6.0356    0.3076    0.1506 O   0  0  0  0  0  0  0  0  0  0  0  0
   -2.4520   -0.6413   -0.3515 C   0  0  0  0  0  0  0  0  0  0  0  0
   -3.8264   -0.7486   -0.3103 C   0  0  0  0  0  0  0  0  0  0  0  0
   -4.5964    0.3310    0.0169 C   0  0  0  0  0  0  0  0  0  0  0  0
   -5.9429   -0.0362   -0.0131 O   0  0  0  0  0  0  0  0  0  0  0  0
   -5.9962   -1.4598   -0.0435 C   0  0  0  0  0  0  0  0  0  0  0  0
   -4.7180   -1.8068   -0.5479 O   0  0  0  0  0  0  0  0  0  0  0  0
  1  2  1  0
  2  3  1  0
  3  4  2  0
  4  5  1  0
  5  6  1  0
  6  7  2  0
  7  8  1  0
  8  9  3  0
  7 10  1  0
 10 11  2  0
 11 12  1  0
 12 13  1  0
 13 14  1  0
 12 15  2  0
 15 16  1  0
 16 17  2  0
 16 18  1  0
 18 19  1  0
 19 20  1  0
  5 21  2  0
 21 22  1  0
 22 23  2  0
 23 24  1  0
 24 25  1  0
 25 26  1  0
 23  3  1  0
 17 10  1  0
 26 22  1  0
 20 15  1  0
M  END
>  <zinc_id>  (25) 
ZINC000066091382

>  <smiles>  (25) 
COc1cc(/C=C(\C#N)c2cc(OC)c3c(c2)OCO3)cc2c1OCO2

$$$$

     RDKit          3D

 18 19  0  0  0  0  0  0  0  0999 V2000
    4.2677   -2.0408   -2.2878 O   0  0  0  0  0  0  0  0  0  0  0  0
    3.5291   -1.0607   -1.6529 C   0  0  0  0  0  0  0  0  0  0  0  0
    4.0326    0.1618   -1.2856 C   0  0  0  0  0  0  0  0  0  0  0  0
    3.2979    1.1222   -0.6602 C   0  0  0  0  0  0  0  0  0  0  0  0
    1.9259    0.9340   -0.3308 C   0  0  0  0  0  0  0  0  0  0  0  0
    1.3145    2.0431    0.3208 C   0  0  0  0  0  0  0  0  0  0  0  0
    0.1399    2.1249    0.7054 C   0  0  0  0  0  0  0  0  0  0  0  0
   -0.8743    1.1284    0.5859 C   0  0  0  0  0  0  0  0  0  0  0  0
   -2.1592    1.4181    1.0912 C   0  0  0  0  0  0  0  0  0  0  0  0
   -3.2045    0.5417    1.0318 C   0  0  0  0  0  0  0  0  0  0  0  0
   -4.4602    0.8602    1.5406 O   0  0  0  0  0  0  0  0  0  0  0  0
   -3.0598   -0.7003    0.4633 C   0  0  0  0  0  0  0  0  0  0  0  0
   -4.1281   -1.5790    0.4098 O   0  0  0  0  0  0  0  0  0  0  0  0
   -1.8017   -1.0355   -0.0533 C   0  0  0  0  0  0  0  0  0  0  0  0
   -1.6695   -2.2748   -0.6170 O   0  0  0  0  0  0  0  0  0  0  0  0
   -0.7916   -0.1068    0.0387 C   0  0  0  0  0  0  0  0  0  0  0  0
    1.4592   -0.2781   -0.7046 C   0  0  0  0  0  0  0  0  0  0  0  0
    2.1823   -1.2585   -1.3351 C   0  0  0  0  0  0  0  0  0  0  0  0
  1  2  1  0
  2  3  2  0
  3  4  1  0
  4  5  2  0
  5  6  1  0
  6  7  2  0
  7  8  1  0
  8  9  2  0
  9 10  1  0
 10 11  1  0
 10 12  2  0
 12 13  1  0
 12 14  1  0
 14 15  1  0
 14 16  2  0
  5 17  1  0
 17 18  2  0
 18  2  1  0
 16  8  1  0
M  END
>  <zinc_id>  (26) 
ZINC000071614385

>  <smiles>  (26) 
Oc1ccc(/C=C\c2cc(O)c(O)c(O)c2)cc1

$$$$

     RDKit          3D

 20 21  0  0  0  0  0  0  0  0999 V2000
    5.2917   -1.8378   -1.2784 C   0  0  0  0  0  0  0  0  0  0  0  0
    4.8855   -1.2486   -0.0738 O   0  0  0  0  0  0  0  0  0  0  0  0
    3.5485   -0.8501    0.0936 C   0  0  0  0  0  0  0  0  0  0  0  0
    2.6461   -1.0366   -0.9158 C   0  0  0  0  0  0  0  0  0  0  0  0
    1.2861   -0.6559   -0.8062 C   0  0  0  0  0  0  0  0  0  0  0  0
    0.4705   -0.9151   -1.9419 C   0  0  0  0  0  0  0  0  0  0  0  0
   -0.7330   -0.6735   -2.0801 C   0  0  0  0  0  0  0  0  0  0  0  0
   -1.5897   -0.0708   -1.1170 C   0  0  0  0  0  0  0  0  0  0  0  0
   -1.3422    0.3752    0.1323 C   0  0  0  0  0  0  0  0  0  0  0  0
   -2.2559    0.9482    0.9875 C   0  0  0  0  0  0  0  0  0  0  0  0
   -3.5686    1.1045    0.5734 C   0  0  0  0  0  0  0  0  0  0  0  0
   -4.5428    1.6710    1.3758 O   0  0  0  0  0  0  0  0  0  0  0  0
   -3.8654    0.6656   -0.6885 C   0  0  0  0  0  0  0  0  0  0  0  0
   -5.1848    0.8257   -1.0976 O   0  0  0  0  0  0  0  0  0  0  0  0
   -2.9354    0.0983   -1.5197 C   0  0  0  0  0  0  0  0  0  0  0  0
    0.9919   -0.0968    0.3923 C   0  0  0  0  0  0  0  0  0  0  0  0
    1.8436    0.1182    1.4410 C   0  0  0  0  0  0  0  0  0  0  0  0
    1.5473    0.6837    2.6542 O   0  0  0  0  0  0  0  0  0  0  0  0
    0.3206    1.1688    3.1021 C   0  0  0  0  0  0  0  0  0  0  0  0
    3.1858   -0.2740    1.2923 C   0  0  0  0  0  0  0  0  0  0  0  0
  1  2  1  0
  2  3  1  0
  3  4  2  0
  4  5  1  0
  5  6  1  0
  6  7  2  0
  7  8  1  0
  8  9  2  0
  9 10  1  0
 10 11  2  0
 11 12  1  0
 11 13  1  0
 13 14  1  0
 13 15  2  0
  5 16  2  0
 16 17  1  0
 17 18  1  0
 18 19  1  0
 17 20  2  0
 20  3  1  0
 15  8  1  0
M  END
>  <zinc_id>  (27) 
ZINC000013340299

>  <smiles>  (27) 
COc1cc(/C=C\c2ccc(O)c(O)c2)cc(OC)c1

$$$$

     RDKit          3D

 28 30  0  0  0  0  0  0  0  0999 V2000
    6.5525   -2.5515    1.3404 O   0  0  0  0  0  0  0  0  0  0  0  0
    6.8192   -1.8571    0.1716 C   0  0  0  0  0  0  0  0  0  0  0  0
    5.3575   -1.5088   -0.4767 C   0  0  1  0  0  0  0  0  0  0  0  0
    4.9029   -0.7138    0.7146 O   0  0  0  0  0  0  0  0  0  0  0  0
    3.5081   -0.6545    0.0067 C   0  0  1  0  0  0  0  0  0  0  0  0
    2.8144   -0.1841    1.2933 O   0  0  0  0  0  0  0  0  0  0  0  0
    1.4681   -0.0791    1.1235 C   0  0  0  0  0  0  0  0  0  0  0  0
    0.7173    0.3873    2.1862 C   0  0  0  0  0  0  0  0  0  0  0  0
   -0.6577    0.5216    2.0984 C   0  0  0  0  0  0  0  0  0  0  0  0
   -1.3098    0.1863    0.9296 C   0  0  0  0  0  0  0  0  0  0  0  0
   -2.7585    0.3133    0.7964 C   0  0  0  0  0  0  0  0  0  0  0  0
   -3.3766   -0.0098   -0.3262 C   0  0  0  0  0  0  0  0  0  0  0  0
   -4.8450    0.1190   -0.4609 C   0  0  0  0  0  0  0  0  0  0  0  0
   -5.6369    0.5800    0.5725 C   0  0  0  0  0  0  0  0  0  0  0  0
   -7.0104    0.7061    0.4622 C   0  0  0  0  0  0  0  0  0  0  0  0
   -7.7960    1.1747    1.5193 O   0  0  0  0  0  0  0  0  0  0  0  0
   -7.6255    0.3556   -0.7367 C   0  0  0  0  0  0  0  0  0  0  0  0
   -6.8581   -0.1075   -1.7844 C   0  0  0  0  0  0  0  0  0  0  0  0
   -7.4790   -0.4515   -2.9674 O   0  0  0  0  0  0  0  0  0  0  0  0
   -5.4893   -0.2175   -1.6306 C   0  0  0  0  0  0  0  0  0  0  0  0
   -0.5964   -0.2722   -0.1231 C   0  0  0  0  0  0  0  0  0  0  0  0
    0.7956   -0.4023   -0.0178 C   0  0  0  0  0  0  0  0  0  0  0  0
    3.9348    0.9627   -0.5138 C   0  0  2  0  0  0  0  0  0  0  0  0
    2.5974    1.2337   -1.0791 O   0  0  0  0  0  0  0  0  0  0  0  0
    4.5119    0.3319   -1.9814 C   0  0  1  0  0  0  0  0  0  0  0  0
    5.1022    1.6380   -2.4191 O   0  0  0  0  0  0  0  0  0  0  0  0
    6.0045   -0.2548   -1.4394 C   0  0  1  0  0  0  0  0  0  0  0  0
    6.3526    0.7546   -0.4221 O   0  0  0  0  0  0  0  0  0  0  0  0
  1  2  1  0
  3  2  1  1
  3  4  1  0
  4  5  1  0
  5  6  1  1
  6  7  1  0
  7  8  2  0
  8  9  1  0
  9 10  2  0
 10 11  1  0
 11 12  2  0
 12 13  1  0
 13 14  2  0
 14 15  1  0
 15 16  1  0
 15 17  2  0
 17 18  1  0
 18 19  1  0
 18 20  2  0
 10 21  1  0
 21 22  2  0
  5 23  1  0
 23 24  1  6
 23 25  1  0
 25 26  1  6
 25 27  1  0
 27 28  1  1
 27  3  1  0
 22  7  1  0
 20 13  1  0
M  END
>  <zinc_id>  (28) 
ZINC000038322005

>  <smiles>  (28) 
OC[C@H]1O[C@@H](Oc2ccc(/C=C/c3cc(O)cc(O)c3)cc2)[C@H](O)[C@@H](O)[C@H]1O

$$$$

     RDKit          3D

 25 26  0  0  0  0  0  0  0  0999 V2000
   -3.3191    2.7740   -2.6013 C   0  0  0  0  0  0  0  0  0  0  0  0
   -3.8104    1.5236   -2.1735 O   0  0  0  0  0  0  0  0  0  0  0  0
   -3.0535    0.6284   -1.4369 C   0  0  0  0  0  0  0  0  0  0  0  0
   -1.7750    0.9478   -1.0986 C   0  0  0  0  0  0  0  0  0  0  0  0
   -1.0406    0.0288   -0.3588 C   0  0  0  0  0  0  0  0  0  0  0  0
   -1.4815   -1.1623    0.0592 C   0  0  0  0  0  0  0  0  0  0  0  0
   -0.8188   -2.1494    0.8042 C   0  0  0  0  0  0  0  0  0  0  0  0
    0.3395   -2.1244    1.2394 C   0  0  0  0  0  0  0  0  0  0  0  0
    1.2893   -1.0756    1.0868 C   0  0  0  0  0  0  0  0  0  0  0  0
    1.2610    0.1247    0.4820 C   0  0  0  0  0  0  0  0  0  0  0  0
    2.2431    1.0540    0.4005 C   0  0  0  0  0  0  0  0  0  0  0  0
    2.1477    2.2724   -0.2390 O   0  0  0  0  0  0  0  0  0  0  0  0
    1.0504    2.7877   -0.9165 C   0  0  0  0  0  0  0  0  0  0  0  0
    3.4579    0.7513    1.0181 C   0  0  0  0  0  0  0  0  0  0  0  0
    4.4898    1.6710    0.9604 O   0  0  0  0  0  0  0  0  0  0  0  0
    5.4205    1.6239   -0.1152 C   0  0  0  0  0  0  0  0  0  0  0  0
    3.5615   -0.4708    1.6627 C   0  0  0  0  0  0  0  0  0  0  0  0
    4.7854   -0.7380    2.2662 O   0  0  0  0  0  0  0  0  0  0  0  0
    4.9574   -1.9708    2.9425 C   0  0  0  0  0  0  0  0  0  0  0  0
    2.5259   -1.3702    1.7088 C   0  0  0  0  0  0  0  0  0  0  0  0
   -2.8020   -1.4624   -0.3049 C   0  0  0  0  0  0  0  0  0  0  0  0
   -3.5532   -0.5718   -1.0372 C   0  0  0  0  0  0  0  0  0  0  0  0
   -4.8877   -0.9018   -1.3919 N   0  0  0  0  0  4  0  0  0  0  0  0
   -5.3896   -0.4979   -2.4342 O   0  0  0  0  0  0  0  0  0  0  0  0
   -5.5979   -1.6922   -0.5229 O   0  0  0  0  0  1  0  0  0  0  0  0
  1  2  1  0
  2  3  1  0
  3  4  2  0
  4  5  1  0
  5  6  2  0
  6  7  1  0
  7  8  2  0
  8  9  1  0
  9 10  2  0
 10 11  1  0
 11 12  1  0
 12 13  1  0
 11 14  2  0
 14 15  1  0
 15 16  1  0
 14 17  1  0
 17 18  1  0
 18 19  1  0
 17 20  2  0
  6 21  1  0
 21 22  2  0
 22 23  1  0
 23 24  2  0
 23 25  1  0
 22  3  1  0
 20  9  1  0
M  CHG  2  23   1  25  -1
M  END
>  <zinc_id>  (29) 
ZINC000013645654

>  <smiles>  (29) 
COc1ccc(/C=C\c2cc(OC)c(OC)c(OC)c2)cc1[N+](=O)[O-]

$$$$

     RDKit          3D

 24 26  0  0  0  0  0  0  0  0999 V2000
    5.2861   -2.7686   -0.8627 C   0  0  0  0  0  0  0  0  0  0  0  0
    5.7031   -1.5128   -0.3523 O   0  0  0  0  0  0  0  0  0  0  0  0
    4.7253   -0.5672   -0.0650 C   0  0  0  0  0  0  0  0  0  0  0  0
    3.3811   -0.8121   -0.2594 C   0  0  0  0  0  0  0  0  0  0  0  0
    2.4248    0.1369    0.0308 C   0  0  0  0  0  0  0  0  0  0  0  0
    0.9882   -0.1400   -0.1827 C   0  0  0  0  0  0  0  0  0  0  0  0
    0.0542    0.7207    0.0755 C   0  0  0  0  0  0  0  0  0  0  0  0
   -1.3670    0.5076   -0.1125 C   0  0  0  0  0  0  0  0  0  0  0  0
   -2.2217    1.5373    0.2161 C   0  0  0  0  0  0  0  0  0  0  0  0
   -3.5894    1.4366    0.0750 C   0  0  0  0  0  0  0  0  0  0  0  0
   -4.4102    2.4861    0.4138 O   0  0  0  0  0  0  0  0  0  0  0  0
   -3.8268    3.6722    0.9100 C   0  0  0  0  0  0  0  0  0  0  0  0
   -4.1257    0.2520   -0.4171 C   0  0  0  0  0  0  0  0  0  0  0  0
   -3.2469   -0.7676   -0.7401 C   0  0  0  0  0  0  0  0  0  0  0  0
   -1.8888   -0.6711   -0.6013 C   0  0  0  0  0  0  0  0  0  0  0  0
   -1.0470   -1.7392   -0.9456 O   0  0  0  0  0  0  0  0  0  0  0  0
   -0.7630   -2.6637    0.0852 C   0  0  0  0  0  0  0  0  0  0  0  0
   -4.0173   -1.8374   -1.2060 O   0  0  0  0  0  0  0  0  0  0  0  0
   -5.3811   -1.5723   -0.9624 C   0  0  0  0  0  0  0  0  0  0  0  0
   -5.4289   -0.1708   -0.6763 O   0  0  0  0  0  0  0  0  0  0  0  0
    2.8640    1.3477    0.5257 C   0  0  0  0  0  0  0  0  0  0  0  0
    4.2069    1.6028    0.7239 C   0  0  0  0  0  0  0  0  0  0  0  0
    5.1573    0.6459    0.4302 C   0  0  0  0  0  0  0  0  0  0  0  0
    6.5228    0.8768    0.6208 O   0  0  0  0  0  0  0  0  0  0  0  0
  1  2  1  0
  2  3  1  0
  3  4  2  0
  4  5  1  0
  5  6  1  0
  6  7  2  0
  7  8  1  0
  8  9  2  0
  9 10  1  0
 10 11  1  0
 11 12  1  0
 10 13  2  0
 13 14  1  0
 14 15  2  0
 15 16  1  0
 16 17  1  0
 14 18  1  0
 18 19  1  0
 19 20  1  0
  5 21  2  0
 21 22  1  0
 22 23  2  0
 23 24  1  0
 23  3  1  0
 15  8  1  0
 20 13  1  0
M  END
>  <zinc_id>  (30) 
ZINC000066088586

>  <smiles>  (30) 
COc1cc(/C=C/c2cc(OC)c3c(c2OC)OCO3)ccc1O

$$$$

     RDKit          3D

 18 19  0  0  0  0  0  0  0  0999 V2000
   -4.1495    2.8038   -1.8660 C   0  0  0  0  0  0  0  0  0  0  0  0
   -4.6534    1.7456   -1.0785 O   0  0  0  0  0  0  0  0  0  0  0  0
   -3.7409    0.8582   -0.4884 C   0  0  0  0  0  0  0  0  0  0  0  0
   -4.1691   -0.1944    0.2910 C   0  0  0  0  0  0  0  0  0  0  0  0
   -3.2946   -1.0907    0.8895 C   0  0  0  0  0  0  0  0  0  0  0  0
   -3.7709   -2.1465    1.6737 O   0  0  0  0  0  0  0  0  0  0  0  0
   -1.9424   -0.8957    0.6780 C   0  0  0  0  0  0  0  0  0  0  0  0
   -1.4664    0.1444   -0.0949 C   0  0  0  0  0  0  0  0  0  0  0  0
   -0.0108    0.3231   -0.3000 C   0  0  0  0  0  0  0  0  0  0  0  0
    0.8698   -0.4717    0.2252 C   0  0  0  0  0  0  0  0  0  0  0  0
    2.3080   -0.3685    0.0752 C   0  0  0  0  0  0  0  0  0  0  0  0
    2.9288    0.6147   -0.6644 C   0  0  0  0  0  0  0  0  0  0  0  0
    4.3021    0.6762   -0.7809 C   0  0  0  0  0  0  0  0  0  0  0  0
    5.0970   -0.2636   -0.1470 C   0  0  0  0  0  0  0  0  0  0  0  0
    6.4907   -0.1911   -0.2725 O   0  0  0  0  0  0  0  0  0  0  0  0
    4.4769   -1.2482    0.5936 C   0  0  0  0  0  0  0  0  0  0  0  0
    3.1016   -1.2997    0.7030 C   0  0  0  0  0  0  0  0  0  0  0  0
   -2.3771    1.0040   -0.6651 C   0  0  0  0  0  0  0  0  0  0  0  0
  1  2  1  0
  2  3  1  0
  3  4  2  0
  4  5  1  0
  5  6  1  0
  5  7  2  0
  7  8  1  0
  8  9  1  0
  9 10  2  0
 10 11  1  0
 11 12  2  0
 12 13  1  0
 13 14  2  0
 14 15  1  0
 14 16  1  0
 16 17  2  0
  8 18  2  0
 18  3  1  0
 17 11  1  0
M  END
>  <zinc_id>  (31) 
ZINC000006483567

>  <smiles>  (31) 
COc1cc(O)cc(/C=C/c2ccc(O)cc2)c1

$$$$

     RDKit          3D

 24 26  0  0  0  0  0  0  0  0999 V2000
    3.3798    4.0107    0.3549 C   0  0  0  0  0  0  0  0  0  0  0  0
    4.0870    2.7879    0.1974 O   0  0  0  0  0  0  0  0  0  0  0  0
    3.3566    1.6053    0.1508 C   0  0  0  0  0  0  0  0  0  0  0  0
    1.9889    1.5395    0.2506 C   0  0  0  0  0  0  0  0  0  0  0  0
    1.2654    0.3681    0.1989 C   0  0  0  0  0  0  0  0  0  0  0  0
   -0.1953    0.3417    0.3357 C   0  0  0  0  0  0  0  0  0  0  0  0
   -0.9241   -0.3388   -0.5305 C   0  0  0  0  0  0  0  0  0  0  0  0
   -0.1826   -1.0541   -1.6237 C   0  0  0  0  0  0  0  0  0  0  0  0
   -2.3733   -0.4546   -0.4822 C   0  0  0  0  0  0  0  0  0  0  0  0
   -3.0846   -1.1043   -1.4869 C   0  0  0  0  0  0  0  0  0  0  0  0
   -4.4443   -1.2313   -1.4477 C   0  0  0  0  0  0  0  0  0  0  0  0
   -5.2101   -0.7165   -0.3924 C   0  0  0  0  0  0  0  0  0  0  0  0
   -4.5190   -0.0741    0.6055 C   0  0  0  0  0  0  0  0  0  0  0  0
   -3.1162    0.0553    0.5588 C   0  0  0  0  0  0  0  0  0  0  0  0
   -5.4687    0.3463    1.5279 O   0  0  0  0  0  0  0  0  0  0  0  0
   -6.7765    0.1464    0.9634 C   0  0  0  0  0  0  0  0  0  0  0  0
   -6.5676   -0.7204   -0.1367 O   0  0  0  0  0  0  0  0  0  0  0  0
    1.9864   -0.8022    0.0373 C   0  0  0  0  0  0  0  0  0  0  0  0
    3.3574   -0.8008   -0.0645 C   0  0  0  0  0  0  0  0  0  0  0  0
    4.1202   -1.9427   -0.2213 O   0  0  0  0  0  0  0  0  0  0  0  0
    3.5889   -3.2488   -0.2903 C   0  0  0  0  0  0  0  0  0  0  0  0
    4.0428    0.4104   -0.0083 C   0  0  0  0  0  0  0  0  0  0  0  0
    5.4365    0.4728   -0.1102 O   0  0  0  0  0  0  0  0  0  0  0  0
    6.2524    0.4040    1.0657 C   0  0  0  0  0  0  0  0  0  0  0  0
  1  2  1  0
  2  3  1  0
  3  4  2  0
  4  5  1  0
  5  6  1  0
  6  7  2  0
  7  8  1  0
  7  9  1  0
  9 10  2  0
 10 11  1  0
 11 12  2  0
 12 13  1  0
 13 14  2  0
 13 15  1  0
 15 16  1  0
 16 17  1  0
  5 18  2  0
 18 19  1  0
 19 20  1  0
 20 21  1  0
 19 22  2  0
 22 23  1  0
 23 24  1  0
 22  3  1  0
 14  9  1  0
 17 12  1  0
M  END
>  <zinc_id>  (32) 
ZINC000001630897

>  <smiles>  (32) 
COc1cc(/C=C(\C)c2ccc3c(c2)OCO3)cc(OC)c1OC

$$$$

     RDKit          3D

 22 24  0  0  0  0  0  0  0  0999 V2000
    4.2417    1.7145    3.0705 C   0  0  0  0  0  0  0  0  0  0  0  0
    4.5294    1.5057    1.7055 O   0  0  0  0  0  0  0  0  0  0  0  0
    3.6008    1.0777    0.7912 C   0  0  0  0  0  0  0  0  0  0  0  0
    2.2806    0.7991    1.0846 C   0  0  0  0  0  0  0  0  0  0  0  0
    1.4389    0.3737    0.0758 C   0  0  0  0  0  0  0  0  0  0  0  0
    1.7748    0.1934   -1.2114 C   0  0  0  0  0  0  0  0  0  0  0  0
    1.0367   -0.2282   -2.3313 C   0  0  0  0  0  0  0  0  0  0  0  0
   -0.1647   -0.5518   -2.4027 C   0  0  0  0  0  0  0  0  0  0  0  0
   -1.0857   -0.5582   -1.2912 C   0  0  0  0  0  0  0  0  0  0  0  0
   -2.4074   -0.9575   -1.5794 C   0  0  0  0  0  0  0  0  0  0  0  0
   -3.3577   -1.0012   -0.6112 C   0  0  0  0  0  0  0  0  0  0  0  0
   -4.6538   -1.4013   -0.9347 O   0  0  0  0  0  0  0  0  0  0  0  0
   -5.0475   -1.7697   -2.2247 C   0  0  0  0  0  0  0  0  0  0  0  0
   -3.0867   -0.6604    0.6975 C   0  0  0  0  0  0  0  0  0  0  0  0
   -1.8059   -0.2666    1.0096 C   0  0  0  0  0  0  0  0  0  0  0  0
   -0.8808   -0.2366    0.0068 C   0  0  0  0  0  0  0  0  0  0  0  0
   -1.8016    0.0174    2.3756 O   0  0  0  0  0  0  0  0  0  0  0  0
   -3.1348    0.0276    2.8400 C   0  0  0  0  0  0  0  0  0  0  0  0
   -3.8902   -0.6328    1.8277 O   0  0  0  0  0  0  0  0  0  0  0  0
    3.1261    0.4812   -1.4991 C   0  0  0  0  0  0  0  0  0  0  0  0
    3.9817    0.9038   -0.5207 C   0  0  0  0  0  0  0  0  0  0  0  0
    5.3062    1.1702   -0.8783 O   0  0  0  0  0  0  0  0  0  0  0  0
  1  2  1  0
  2  3  1  0
  3  4  2  0
  4  5  1  0
  5  6  2  0
  6  7  1  0
  7  8  2  0
  8  9  1  0
  9 10  2  0
 10 11  1  0
 11 12  1  0
 12 13  1  0
 11 14  2  0
 14 15  1  0
 15 16  2  0
 15 17  1  0
 17 18  1  0
 18 19  1  0
  6 20  1  0
 20 21  2  0
 21 22  1  0
 21  3  1  0
 16  9  1  0
 19 14  1  0
M  END
>  <zinc_id>  (33) 
ZINC000000024633

>  <smiles>  (33) 
COc1ccc(/C=C\c2cc(OC)c3c(c2)OCO3)cc1O

$$$$

     RDKit          3D

 28 30  0  0  0  0  0  0  0  0999 V2000
   -4.3668   -0.9948   -1.8087 O   0  0  0  0  0  0  0  0  0  0  0  0
   -4.9344   -0.0250   -2.4205 C   0  0  0  0  0  0  0  0  0  0  0  0
   -5.1693    1.3404   -1.6033 C   0  0  2  0  0  0  0  0  0  0  0  0
   -3.7189    1.5604   -1.3456 O   0  0  0  0  0  0  0  0  0  0  0  0
   -3.3382    0.4337   -0.4310 C   0  0  1  0  0  0  0  0  0  0  0  0
   -1.8385    0.6434   -0.6784 O   0  0  0  0  0  0  0  0  0  0  0  0
   -0.9779   -0.1957   -0.0257 C   0  0  0  0  0  0  0  0  0  0  0  0
   -1.3595   -1.2023    0.8268 C   0  0  0  0  0  0  0  0  0  0  0  0
   -0.4455   -2.0073    1.4487 C   0  0  0  0  0  0  0  0  0  0  0  0
   -0.9161   -3.0091    2.3016 O   0  0  0  0  0  0  0  0  0  0  0  0
    0.9093   -1.8556    1.2565 C   0  0  0  0  0  0  0  0  0  0  0  0
    1.3115   -0.8463    0.4008 C   0  0  0  0  0  0  0  0  0  0  0  0
    2.6948   -0.5703    0.1044 C   0  0  0  0  0  0  0  0  0  0  0  0
    3.7408   -1.1725    0.5519 C   0  0  0  0  0  0  0  0  0  0  0  0
    5.0785   -0.7843    0.1648 C   0  0  0  0  0  0  0  0  0  0  0  0
    5.2544    0.2606   -0.7095 C   0  0  0  0  0  0  0  0  0  0  0  0
    6.5046    0.6845   -1.1220 C   0  0  0  0  0  0  0  0  0  0  0  0
    7.6276    0.0708   -0.6686 C   0  0  0  0  0  0  0  0  0  0  0  0
    8.8851    0.4966   -1.0830 O   0  0  0  0  0  0  0  0  0  0  0  0
    7.4882   -0.9815    0.2100 C   0  0  0  0  0  0  0  0  0  0  0  0
    6.2170   -1.4025    0.6211 C   0  0  0  0  0  0  0  0  0  0  0  0
    0.3770   -0.0417   -0.2197 C   0  0  0  0  0  0  0  0  0  0  0  0
   -3.4426    1.3193    1.0351 C   0  0  1  0  0  0  0  0  0  0  0  0
   -2.6839    2.5279    0.6290 O   0  0  0  0  0  0  0  0  0  0  0  0
   -4.9264    2.0601    0.7192 C   0  0  2  0  0  0  0  0  0  0  0  0
   -5.4994    1.6751    2.0378 O   0  0  0  0  0  0  0  0  0  0  0  0
   -5.5504    0.7054   -0.0738 C   0  0  1  0  0  0  0  0  0  0  0  0
   -6.9212    1.3106   -0.1095 O   0  0  0  0  0  0  0  0  0  0  0  0
  1  2  1  0
  3  2  1  6
  3  4  1  0
  4  5  1  0
  5  6  1  6
  6  7  1  0
  7  8  2  0
  8  9  1  0
  9 10  1  0
  9 11  2  0
 11 12  1  0
 12 13  1  0
 13 14  2  0
 14 15  1  0
 15 16  2  0
 16 17  1  0
 17 18  2  0
 18 19  1  0
 18 20  1  0
 20 21  2  0
 12 22  2  0
  5 23  1  0
 23 24  1  6
 23 25  1  0
 25 26  1  1
 25 27  1  0
 27 28  1  6
 27  3  1  0
 22  7  1  0
 21 15  1  0
M  END
>  <zinc_id>  (34) 
ZINC000142857948

>  <smiles>  (34) 
OC[C@@H]1O[C@@H](Oc2cc(O)cc(/C=C/c3ccc(O)cc3)c2)[C@@H](O)[C@H](O)[C@H]1O

$$$$

     RDKit          3D

 26 27  0  0  0  0  0  0  0  0999 V2000
   -5.1886    2.4916    1.3618 C   0  0  0  0  0  0  0  0  0  0  0  0
   -4.9495    1.1600    0.9597 O   0  0  0  0  0  0  0  0  0  0  0  0
   -3.6773    0.8460    0.4606 C   0  0  0  0  0  0  0  0  0  0  0  0
   -2.6959    1.7942    0.3640 C   0  0  0  0  0  0  0  0  0  0  0  0
   -1.4204    1.4854   -0.1329 C   0  0  0  0  0  0  0  0  0  0  0  0
   -0.5276    2.5786   -0.3141 C   0  0  0  0  0  0  0  0  0  0  0  0
    0.7205    2.4997   -0.4293 C   0  0  0  0  0  0  0  0  0  0  0  0
    1.5233    1.3353   -0.3858 C   0  0  0  0  0  0  0  0  0  0  0  0
    2.8132    1.4725   -0.9201 C   0  0  0  0  0  0  0  0  0  0  0  0
    3.7333    0.4544   -0.8331 C   0  0  0  0  0  0  0  0  0  0  0  0
    5.0136    0.5709   -1.3572 O   0  0  0  0  0  0  0  0  0  0  0  0
    5.4176    1.7614   -2.0081 C   0  0  0  0  0  0  0  0  0  0  0  0
    3.4204   -0.7373   -0.2158 C   0  0  0  0  0  0  0  0  0  0  0  0
    4.3357   -1.7934   -0.1110 O   0  0  0  0  0  0  0  0  0  0  0  0
    5.1497   -1.7747    1.0632 C   0  0  0  0  0  0  0  0  0  0  0  0
    2.1457   -0.9145    0.3314 C   0  0  0  0  0  0  0  0  0  0  0  0
    1.8666   -2.1204    0.9535 O   0  0  0  0  0  0  0  0  0  0  0  0
    0.6450   -2.4272    1.5701 C   0  0  0  0  0  0  0  0  0  0  0  0
    1.2829    0.1325    0.2083 C   0  0  0  0  0  0  0  0  0  0  0  0
   -1.2289    0.1866   -0.5097 C   0  0  0  0  0  0  0  0  0  0  0  0
   -2.2051   -0.7771   -0.4213 C   0  0  0  0  0  0  0  0  0  0  0  0
   -2.0422   -2.1012   -0.8074 O   0  0  0  0  0  0  0  0  0  0  0  0
   -0.8530   -2.6157   -1.3609 C   0  0  0  0  0  0  0  0  0  0  0  0
   -3.4736   -0.4597    0.0769 C   0  0  0  0  0  0  0  0  0  0  0  0
   -4.4683   -1.4260    0.1734 O   0  0  0  0  0  0  0  0  0  0  0  0
   -5.3372   -1.6220   -0.9268 C   0  0  0  0  0  0  0  0  0  0  0  0
  1  2  1  0
  2  3  1  0
  3  4  2  0
  4  5  1  0
  5  6  1  0
  6  7  2  0
  7  8  1  0
  8  9  2  0
  9 10  1  0
 10 11  1  0
 11 12  1  0
 10 13  2  0
 13 14  1  0
 14 15  1  0
 13 16  1  0
 16 17  1  0
 17 18  1  0
 16 19  2  0
  5 20  2  0
 20 21  1  0
 21 22  1  0
 22 23  1  0
 21 24  2  0
 24 25  1  0
 25 26  1  0
 24  3  1  0
 19  8  1  0
M  END
>  <zinc_id>  (35) 
ZINC000071618894

>  <smiles>  (35) 
COc1cc(/C=C\c2cc(OC)c(OC)c(OC)c2)cc(OC)c1OC

$$$$

     RDKit          3D

 21 22  0  0  0  0  0  0  0  0999 V2000
   -5.9315   -1.3115   -1.1987 C   0  0  0  0  0  0  0  0  0  0  0  0
   -4.5446   -1.2837   -1.0602 O   0  0  0  0  0  0  0  0  0  0  0  0
   -3.8440   -0.2781   -0.4116 C   0  0  0  0  0  0  0  0  0  0  0  0
   -2.4751   -0.3514   -0.3336 C   0  0  0  0  0  0  0  0  0  0  0  0
   -1.7079    0.6050    0.2922 C   0  0  0  0  0  0  0  0  0  0  0  0
   -0.2458    0.5261    0.3751 C   0  0  0  0  0  0  0  0  0  0  0  0
    0.4347   -0.4621   -0.1416 C   0  0  0  0  0  0  0  0  0  0  0  0
    1.8920   -0.5744   -0.0786 C   0  0  0  0  0  0  0  0  0  0  0  0
    2.6866    0.3573    0.5353 C   0  0  0  0  0  0  0  0  0  0  0  0
    4.0354    0.2144    0.5708 C   0  0  0  0  0  0  0  0  0  0  0  0
    4.6442   -0.8714   -0.0092 C   0  0  0  0  0  0  0  0  0  0  0  0
    6.0191   -1.0748   -0.0067 O   0  0  0  0  0  0  0  0  0  0  0  0
    6.9081   -0.1746    0.5971 C   0  0  0  0  0  0  0  0  0  0  0  0
    3.8433   -1.7887   -0.6151 C   0  0  0  0  0  0  0  0  0  0  0  0
    4.4150   -2.9180   -1.2238 O   0  0  0  0  0  0  0  0  0  0  0  0
    2.4757   -1.6671   -0.6648 C   0  0  0  0  0  0  0  0  0  0  0  0
   -2.3611    1.6778    0.8606 C   0  0  0  0  0  0  0  0  0  0  0  0
   -3.7462    1.8029    0.8114 C   0  0  0  0  0  0  0  0  0  0  0  0
   -4.4039    2.8821    1.3832 O   0  0  0  0  0  0  0  0  0  0  0  0
   -3.6290    3.8736    2.0301 C   0  0  0  0  0  0  0  0  0  0  0  0
   -4.4652    0.8167    0.1725 C   0  0  0  0  0  0  0  0  0  0  0  0
  1  2  1  0
  2  3  1  0
  3  4  2  0
  4  5  1  0
  5  6  1  0
  6  7  2  0
  7  8  1  0
  8  9  2  0
  9 10  1  0
 10 11  2  0
 11 12  1  0
 12 13  1  0
 11 14  1  0
 14 15  1  0
 14 16  2  0
  5 17  2  0
 17 18  1  0
 18 19  1  0
 19 20  1  0
 18 21  2  0
 21  3  1  0
 16  8  1  0
M  END
>  <zinc_id>  (36) 
ZINC000001591410

>  <smiles>  (36) 
COc1cc(/C=C/c2ccc(OC)c(O)c2)cc(OC)c1

$$$$

     RDKit          3D

 24 25  0  0  0  0  0  0  0  0999 V2000
    7.6077   -0.3413   -0.8539 C   0  0  0  0  0  0  0  0  0  0  0  0
    6.6908   -0.1206    0.1927 O   0  0  0  0  0  0  0  0  0  0  0  0
    5.3395   -0.1077   -0.1101 C   0  0  0  0  0  0  0  0  0  0  0  0
    4.4859    0.1114    0.9797 C   0  0  0  0  0  0  0  0  0  0  0  0
    3.1393    0.1268    0.7020 C   0  0  0  0  0  0  0  0  0  0  0  0
    2.6035   -0.0536   -0.5300 C   0  0  0  0  0  0  0  0  0  0  0  0
    1.1267   -0.0390   -0.6762 C   0  0  0  0  0  0  0  0  0  0  0  0
    0.5135   -0.1633   -1.9671 C   0  0  0  0  0  0  0  0  0  0  0  0
    0.0250   -0.2590   -3.0097 N   0  0  0  0  0  0  0  0  0  0  0  0
    0.3775    0.0884    0.3719 C   0  0  0  0  0  0  0  0  0  0  0  0
   -1.0678    0.1160    0.3548 C   0  0  0  0  0  0  0  0  0  0  0  0
   -1.7138   -0.6283    1.3490 C   0  0  0  0  0  0  0  0  0  0  0  0
   -3.0855   -0.6900    1.4715 C   0  0  0  0  0  0  0  0  0  0  0  0
   -3.6685   -1.4485    2.4818 O   0  0  0  0  0  0  0  0  0  0  0  0
   -2.8259   -2.1482    3.3693 C   0  0  0  0  0  0  0  0  0  0  0  0
   -3.8772    0.0157    0.5724 C   0  0  0  0  0  0  0  0  0  0  0  0
   -5.2646   -0.0419    0.6900 O   0  0  0  0  0  0  0  0  0  0  0  0
   -5.9363    0.9193    1.5107 C   0  0  0  0  0  0  0  0  0  0  0  0
   -3.2638    0.7552   -0.4141 C   0  0  0  0  0  0  0  0  0  0  0  0
   -4.0703    1.4465   -1.2925 O   0  0  0  0  0  0  0  0  0  0  0  0
   -3.5258    2.2189   -2.3188 C   0  0  0  0  0  0  0  0  0  0  0  0
   -1.8647    0.8022   -0.5191 C   0  0  0  0  0  0  0  0  0  0  0  0
    3.4327   -0.2662   -1.5863 C   0  0  0  0  0  0  0  0  0  0  0  0
    4.8219   -0.2928   -1.3700 C   0  0  0  0  0  0  0  0  0  0  0  0
  1  2  1  0
  2  3  1  0
  3  4  2  0
  4  5  1  0
  5  6  2  0
  6  7  1  0
  7  8  1  0
  8  9  3  0
  7 10  2  0
 10 11  1  0
 11 12  2  0
 12 13  1  0
 13 14  1  0
 14 15  1  0
 13 16  2  0
 16 17  1  0
 17 18  1  0
 16 19  1  0
 19 20  1  0
 20 21  1  0
 19 22  2  0
  6 23  1  0
 23 24  2  0
 24  3  1  0
 22 11  1  0
M  END
>  <zinc_id>  (37) 
ZINC000000072222

>  <smiles>  (37) 
COc1ccc(/C(C#N)=C/c2cc(OC)c(OC)c(OC)c2)cc1

$$$$

     RDKit          3D

 19 20  0  0  0  0  0  0  0  0999 V2000
    3.9388    1.6324   -4.6929 C   0  0  0  0  0  0  0  0  0  0  0  0
    2.5329    1.5896   -4.7108 O   0  0  0  0  0  0  0  0  0  0  0  0
    1.8648    1.1982   -3.5424 C   0  0  0  0  0  0  0  0  0  0  0  0
    2.5559    0.8606   -2.3964 C   0  0  0  0  0  0  0  0  0  0  0  0
    1.9113    0.4695   -1.2268 C   0  0  0  0  0  0  0  0  0  0  0  0
    0.5346    0.4076   -1.1805 C   0  0  0  0  0  0  0  0  0  0  0  0
   -0.2165    0.0091    0.0012 C   0  0  0  0  0  0  0  0  0  0  0  0
    0.2973   -0.3322    1.1395 C   0  0  0  0  0  0  0  0  0  0  0  0
   -0.5610   -0.7109    2.2466 C   0  0  0  0  0  0  0  0  0  0  0  0
   -1.9244   -0.6974    2.0549 C   0  0  0  0  0  0  0  0  0  0  0  0
   -2.8347   -1.0319    3.0165 C   0  0  0  0  0  0  0  0  0  0  0  0
   -4.1969   -0.9966    2.7555 O   0  0  0  0  0  0  0  0  0  0  0  0
   -2.3670   -1.4129    4.2758 C   0  0  0  0  0  0  0  0  0  0  0  0
   -1.0054   -1.4352    4.4952 C   0  0  0  0  0  0  0  0  0  0  0  0
   -0.5312   -1.8179    5.7608 O   0  0  0  0  0  0  0  0  0  0  0  0
   -0.1027   -1.0862    3.4870 C   0  0  0  0  0  0  0  0  0  0  0  0
   -0.1509    0.7460   -2.3285 C   0  0  0  0  0  0  0  0  0  0  0  0
    0.4906    1.1340   -3.4890 C   0  0  0  0  0  0  0  0  0  0  0  0
   -0.2354    1.4742   -4.6467 O   0  0  0  0  0  0  0  0  0  0  0  0
  1  2  1  0
  2  3  1  0
  3  4  2  0
  4  5  1  0
  5  6  2  0
  6  7  1  0
  7  8  2  0
  8  9  1  0
  9 10  2  0
 10 11  1  0
 11 12  1  0
 11 13  2  0
 13 14  1  0
 14 15  1  0
 14 16  2  0
  6 17  1  0
 17 18  2  0
 18 19  1  0
 18  3  1  0
 16  9  1  0
M  END
>  <zinc_id>  (38) 
ZINC000026981407

>  <smiles>  (38) 
COc1ccc(/C=C/c2cc(O)cc(O)c2)cc1O

$$$$

     RDKit          3D

 27 29  0  0  0  0  0  0  0  0999 V2000
    3.5870    3.9514   -0.1492 C   0  0  0  0  0  0  0  0  0  0  0  0
    4.2667    2.7174   -0.3301 O   0  0  0  0  0  0  0  0  0  0  0  0
    3.4893    1.5535   -0.2194 C   0  0  0  0  0  0  0  0  0  0  0  0
    2.1329    1.6139    0.0455 C   0  0  0  0  0  0  0  0  0  0  0  0
    1.3207    0.4999    0.1687 C   0  0  0  0  0  0  0  0  0  0  0  0
   -0.0956    0.6753    0.4336 C   0  0  0  0  0  0  0  0  0  0  0  0
   -0.9300   -0.3437    0.3406 C   0  0  0  0  0  0  0  0  0  0  0  0
   -0.3410   -1.5670   -0.0221 O   0  0  0  0  0  0  0  0  0  0  0  0
   -0.3168   -1.8143   -1.4050 C   0  0  0  0  0  0  0  0  0  0  0  0
    0.2673   -3.0518   -1.9884 C   0  0  0  0  0  0  0  0  0  0  0  0
   -0.7976   -0.9808   -2.2180 O   0  0  0  0  0  0  0  0  0  0  0  0
   -2.3472   -0.2348    0.5856 C   0  0  0  0  0  0  0  0  0  0  0  0
   -3.1374   -1.3563    0.4879 C   0  0  0  0  0  0  0  0  0  0  0  0
   -4.5191   -1.3389    0.6998 C   0  0  0  0  0  0  0  0  0  0  0  0
   -5.0852   -0.1187    1.0211 C   0  0  0  0  0  0  0  0  0  0  0  0
   -4.3370    1.0001    1.1237 C   0  0  0  0  0  0  0  0  0  0  0  0
   -2.9568    0.9446    0.9052 C   0  0  0  0  0  0  0  0  0  0  0  0
   -5.1801    2.0480    1.4545 O   0  0  0  0  0  0  0  0  0  0  0  0
   -6.4669    1.5178    1.7329 C   0  0  0  0  0  0  0  0  0  0  0  0
   -6.4266    0.1738    1.2810 O   0  0  0  0  0  0  0  0  0  0  0  0
    1.9382   -0.7152    0.0111 C   0  0  0  0  0  0  0  0  0  0  0  0
    3.2932   -0.8224   -0.2556 C   0  0  0  0  0  0  0  0  0  0  0  0
    3.9518   -2.0251   -0.4237 O   0  0  0  0  0  0  0  0  0  0  0  0
    3.2587   -3.2491   -0.3306 C   0  0  0  0  0  0  0  0  0  0  0  0
    4.0564    0.3171   -0.3681 C   0  0  0  0  0  0  0  0  0  0  0  0
    5.4258    0.2879   -0.6344 O   0  0  0  0  0  0  0  0  0  0  0  0
    5.9494    0.3175   -1.9465 C   0  0  0  0  0  0  0  0  0  0  0  0
  1  2  1  0
  2  3  1  0
  3  4  2  0
  4  5  1  0
  5  6  1  0
  6  7  2  0
  7  8  1  0
  8  9  1  0
  9 10  1  0
  9 11  2  0
  7 12  1  0
 12 13  2  0
 13 14  1  0
 14 15  2  0
 15 16  1  0
 16 17  2  0
 16 18  1  0
 18 19  1  0
 19 20  1  0
  5 21  2  0
 21 22  1  0
 22 23  1  0
 23 24  1  0
 22 25  2  0
 25 26  1  0
 26 27  1  0
 25  3  1  0
 17 12  1  0
 20 15  1  0
M  END
>  <zinc_id>  (39) 
ZINC000016958094

>  <smiles>  (39) 
COc1cc(/C=C(\OC(C)=O)c2ccc3c(c2)OCO3)cc(OC)c1OC

$$$$

     RDKit          3D

 20 21  0  0  0  0  0  0  0  0999 V2000
    5.0686    1.3136    0.2722 O   0  0  0  0  0  0  0  0  0  0  0  0
    3.7393    0.9371    0.1476 C   0  0  0  0  0  0  0  0  0  0  0  0
    2.8515    1.0464    1.1635 C   0  0  0  0  0  0  0  0  0  0  0  0
    1.4901    0.6681    1.0584 C   0  0  0  0  0  0  0  0  0  0  0  0
    0.7699    0.8830    2.2667 C   0  0  0  0  0  0  0  0  0  0  0  0
   -0.4393    0.6449    2.4719 C   0  0  0  0  0  0  0  0  0  0  0  0
   -1.3476    0.1018    1.5161 C   0  0  0  0  0  0  0  0  0  0  0  0
   -2.6739   -0.0819    1.9764 C   0  0  0  0  0  0  0  0  0  0  0  0
   -3.6594   -0.5920    1.1808 C   0  0  0  0  0  0  0  0  0  0  0  0
   -4.9382   -0.7522    1.6761 O   0  0  0  0  0  0  0  0  0  0  0  0
   -3.4262   -0.9625   -0.1267 C   0  0  0  0  0  0  0  0  0  0  0  0
   -4.4426   -1.4746   -0.9047 O   0  0  0  0  0  0  0  0  0  0  0  0
   -2.1267   -0.7955   -0.6174 C   0  0  0  0  0  0  0  0  0  0  0  0
   -1.8462   -1.1520   -1.9185 O   0  0  0  0  0  0  0  0  0  0  0  0
   -1.1782   -0.2783    0.2284 C   0  0  0  0  0  0  0  0  0  0  0  0
    1.1630    0.1887   -0.1507 C   0  0  0  0  0  0  0  0  0  0  0  0
    1.9832    0.0416   -1.2296 C   0  0  0  0  0  0  0  0  0  0  0  0
    1.5321   -0.4607   -2.4128 O   0  0  0  0  0  0  0  0  0  0  0  0
    3.2918    0.4208   -1.0808 C   0  0  0  0  0  0  0  0  0  0  0  0
    4.1887    0.3038   -2.1271 O   0  0  0  0  0  0  0  0  0  0  0  0
  1  2  1  0
  2  3  2  0
  3  4  1  0
  4  5  1  0
  5  6  2  0
  6  7  1  0
  7  8  2  0
  8  9  1  0
  9 10  1  0
  9 11  2  0
 11 12  1  0
 11 13  1  0
 13 14  1  0
 13 15  2  0
  4 16  2  0
 16 17  1  0
 17 18  1  0
 17 19  2  0
 19 20  1  0
 19  2  1  0
 15  7  1  0
M  END
>  <zinc_id>  (40) 
ZINC000071619152

>  <smiles>  (40) 
Oc1cc(/C=C\c2cc(O)c(O)c(O)c2)cc(O)c1O

$$$$

     RDKit          3D

 23 25  0  0  0  0  0  0  0  0999 V2000
    5.5559    2.4131    1.6279 C   0  0  0  0  0  0  0  0  0  0  0  0
    4.5797    2.4399    0.5979 O   0  0  0  0  0  0  0  0  0  0  0  0
    3.7655    1.3203    0.3535 C   0  0  0  0  0  0  0  0  0  0  0  0
    3.8632    0.1562    1.0808 C   0  0  0  0  0  0  0  0  0  0  0  0
    3.0447   -0.9131    0.8071 C   0  0  0  0  0  0  0  0  0  0  0  0
    2.0741   -0.8978   -0.2085 C   0  0  0  0  0  0  0  0  0  0  0  0
    1.3005   -2.0712   -0.4721 C   0  0  0  0  0  0  0  0  0  0  0  0
    0.0154   -2.1201   -0.5354 C   0  0  0  0  0  0  0  0  0  0  0  0
   -0.5664   -3.4361   -0.8279 C   0  0  0  0  0  0  0  0  0  0  0  0
   -1.0147   -4.4697   -1.0804 N   0  0  0  0  0  0  0  0  0  0  0  0
   -0.8247   -0.9853   -0.2749 C   0  0  0  0  0  0  0  0  0  0  0  0
   -2.1966   -1.1833   -0.4473 C   0  0  0  0  0  0  0  0  0  0  0  0
   -3.1345   -0.2226   -0.2143 C   0  0  0  0  0  0  0  0  0  0  0  0
   -4.4950   -0.4136   -0.3840 O   0  0  0  0  0  0  0  0  0  0  0  0
   -5.0766   -1.6284   -0.8195 C   0  0  0  0  0  0  0  0  0  0  0  0
   -2.7235    1.0245    0.2175 C   0  0  0  0  0  0  0  0  0  0  0  0
   -1.3838    1.2453    0.3946 C   0  0  0  0  0  0  0  0  0  0  0  0
   -0.4659    0.2535    0.1498 C   0  0  0  0  0  0  0  0  0  0  0  0
   -1.2415    2.5724    0.8308 O   0  0  0  0  0  0  0  0  0  0  0  0
   -2.5053    3.0608    1.2599 C   0  0  0  0  0  0  0  0  0  0  0  0
   -3.3878    2.2063    0.5435 O   0  0  0  0  0  0  0  0  0  0  0  0
    1.9972    0.2892   -0.9269 C   0  0  0  0  0  0  0  0  0  0  0  0
    2.8201    1.3598   -0.6490 C   0  0  0  0  0  0  0  0  0  0  0  0
  1  2  1  0
  2  3  1  0
  3  4  2  0
  4  5  1  0
  5  6  2  0
  6  7  1  0
  7  8  2  0
  8  9  1  0
  9 10  3  0
  8 11  1  0
 11 12  2  0
 12 13  1  0
 13 14  1  0
 14 15  1  0
 13 16  2  0
 16 17  1  0
 17 18  2  0
 17 19  1  0
 19 20  1  0
 20 21  1  0
  6 22  1  0
 22 23  2  0
 23  3  1  0
 18 11  1  0
 21 16  1  0
M  END
>  <zinc_id>  (41) 
ZINC000096137279

>  <smiles>  (41) 
COc1ccc(/C=C(/C#N)c2cc(OC)c3c(c2)OCO3)cc1

$$$$

     RDKit          3D

 27 28  0  0  0  0  0  0  0  0999 V2000
    5.5200   -3.1219    1.9192 C   0  0  0  0  0  0  0  0  0  0  0  0
    5.4286   -1.8425    1.3396 O   0  0  0  0  0  0  0  0  0  0  0  0
    4.1556   -1.3305    1.0283 C   0  0  0  0  0  0  0  0  0  0  0  0
    3.0167   -2.0664    1.2852 C   0  0  0  0  0  0  0  0  0  0  0  0
    1.7817   -1.5709    0.9837 C   0  0  0  0  0  0  0  0  0  0  0  0
    1.6364   -0.3189    0.4130 C   0  0  0  0  0  0  0  0  0  0  0  0
    0.3023    0.2228    0.0844 C   0  0  0  0  0  0  0  0  0  0  0  0
   -0.7413   -0.5098    0.3460 C   0  0  0  0  0  0  0  0  0  0  0  0
   -2.1197   -0.1429    0.0930 C   0  0  0  0  0  0  0  0  0  0  0  0
   -2.5404    1.0247   -0.4576 C   0  0  0  0  0  0  0  0  0  0  0  0
   -3.9031    1.2687   -0.6544 C   0  0  0  0  0  0  0  0  0  0  0  0
   -4.3619    2.4545   -1.2156 O   0  0  0  0  0  0  0  0  0  0  0  0
   -3.4117    3.4276   -1.5911 C   0  0  0  0  0  0  0  0  0  0  0  0
   -4.8441    0.3124   -0.2859 C   0  0  0  0  0  0  0  0  0  0  0  0
   -6.2068    0.5402   -0.4754 O   0  0  0  0  0  0  0  0  0  0  0  0
   -6.7413    0.1183   -1.7281 C   0  0  0  0  0  0  0  0  0  0  0  0
   -4.4210   -0.8742    0.2734 C   0  0  0  0  0  0  0  0  0  0  0  0
   -5.3952   -1.8138    0.6322 O   0  0  0  0  0  0  0  0  0  0  0  0
   -5.0314   -3.0548    1.2121 C   0  0  0  0  0  0  0  0  0  0  0  0
   -3.0903   -1.0797    0.4509 C   0  0  0  0  0  0  0  0  0  0  0  0
    2.7926    0.3889    0.1698 C   0  0  0  0  0  0  0  0  0  0  0  0
    4.0500   -0.0694    0.4561 C   0  0  0  0  0  0  0  0  0  0  0  0
    5.2166    0.6213    0.2213 O   0  0  0  0  0  0  0  0  0  0  0  0
    5.3067    1.8941   -0.3437 C   0  0  0  0  0  0  0  0  0  0  0  0
    4.7166    1.8688   -1.6904 C   0  0  0  0  0  0  0  0  0  0  0  0
    4.7058    2.9324   -2.3611 O   0  0  0  0  0  0  0  0  0  0  0  0
    4.1786    0.7211   -2.2355 O   0  0  0  0  0  0  0  0  0  0  0  0
  1  2  1  0
  2  3  1  0
  3  4  2  0
  4  5  1  0
  5  6  2  0
  6  7  1  0
  7  8  2  0
  8  9  1  0
  9 10  2  0
 10 11  1  0
 11 12  1  0
 12 13  1  0
 11 14  2  0
 14 15  1  0
 15 16  1  0
 14 17  1  0
 17 18  1  0
 18 19  1  0
 17 20  2  0
  6 21  1  0
 21 22  2  0
 22 23  1  0
 23 24  1  0
 24 25  1  0
 25 26  2  0
 25 27  1  0
 22  3  1  0
 20  9  1  0
M  END
>  <zinc_id>  (42) 
ZINC000001628982

>  <smiles>  (42) 
COc1ccc(/C=C/c2cc(OC)c(OC)c(OC)c2)cc1OCC(=O)O

$$$$

     RDKit          3D

 26 28  0  0  0  0  0  0  0  0999 V2000
    4.1935   -3.6157   -2.3728 C   0  0  0  0  0  0  0  0  0  0  0  0
    4.3888   -2.2123   -2.2860 O   0  0  0  0  0  0  0  0  0  0  0  0
    3.6675   -1.4000   -1.4225 C   0  0  0  0  0  0  0  0  0  0  0  0
    3.9546   -0.0369   -1.4337 C   0  0  0  0  0  0  0  0  0  0  0  0
    3.2701    0.8159   -0.5957 C   0  0  0  0  0  0  0  0  0  0  0  0
    2.2772    0.3740    0.2882 C   0  0  0  0  0  0  0  0  0  0  0  0
    1.5986    1.3099    1.2017 C   0  0  0  0  0  0  0  0  0  0  0  0
    0.3030    1.4246    1.3993 C   0  0  0  0  0  0  0  0  0  0  0  0
   -0.7781    0.6724    0.7758 C   0  0  0  0  0  0  0  0  0  0  0  0
   -1.9676    1.3725    0.5230 C   0  0  0  0  0  0  0  0  0  0  0  0
   -3.0373    0.7429   -0.0667 C   0  0  0  0  0  0  0  0  0  0  0  0
   -4.1913    1.4899   -0.2910 O   0  0  0  0  0  0  0  0  0  0  0  0
   -4.2589    2.8604    0.0825 C   0  0  0  0  0  0  0  0  0  0  0  0
   -3.0067   -0.5776   -0.4360 C   0  0  0  0  0  0  0  0  0  0  0  0
   -4.0895   -1.2228   -1.0344 O   0  0  0  0  0  0  0  0  0  0  0  0
   -5.0383   -1.8559   -0.1709 C   0  0  0  0  0  0  0  0  0  0  0  0
   -1.8298   -1.2753   -0.1878 C   0  0  0  0  0  0  0  0  0  0  0  0
   -1.7551   -2.6277   -0.5506 O   0  0  0  0  0  0  0  0  0  0  0  0
   -0.5227   -3.2921   -0.2711 C   0  0  0  0  0  0  0  0  0  0  0  0
   -0.7532   -0.6403    0.4070 C   0  0  0  0  0  0  0  0  0  0  0  0
    0.0804    2.4978    2.4147 C   0  0  0  0  0  0  0  0  0  0  0  0
   -0.9521    3.1483    2.5855 O   0  0  0  0  0  0  0  0  0  0  0  0
    1.3559    2.5959    3.1484 C   0  0  0  0  0  0  0  0  0  0  0  0
    2.3766    2.2893    2.0484 C   0  0  0  0  0  0  0  0  0  0  0  0
    2.0196   -0.9734    0.2730 C   0  0  0  0  0  0  0  0  0  0  0  0
    2.6947   -1.8638   -0.5639 C   0  0  0  0  0  0  0  0  0  0  0  0
  1  2  1  0
  2  3  1  0
  3  4  2  0
  4  5  1  0
  5  6  2  0
  6  7  1  0
  7  8  2  0
  8  9  1  0
  9 10  2  0
 10 11  1  0
 11 12  1  0
 12 13  1  0
 11 14  2  0
 14 15  1  0
 15 16  1  0
 14 17  1  0
 17 18  1  0
 18 19  1  0
 17 20  2  0
  8 21  1  0
 21 22  2  0
 21 23  1  0
 23 24  1  0
  6 25  1  0
 25 26  2  0
 26  3  1  0
 24  7  1  0
 20  9  1  0
M  END
>  <zinc_id>  (43) 
ZINC000026144365

>  <smiles>  (43) 
COc1ccc(C2=C(c3cc(OC)c(OC)c(OC)c3)C(=O)CC2)cc1

$$$$

     RDKit          3D

 22 24  0  0  0  0  0  0  0  0999 V2000
   -4.1977    3.4480   -0.2289 C   0  0  0  0  0  0  0  0  0  0  0  0
   -4.5001    2.1377   -0.6015 O   0  0  0  0  0  0  0  0  0  0  0  0
   -3.6170    1.0913   -0.6225 C   0  0  0  0  0  0  0  0  0  0  0  0
   -2.2921    1.2949   -0.2502 C   0  0  0  0  0  0  0  0  0  0  0  0
   -1.4548    0.2211   -0.2886 C   0  0  0  0  0  0  0  0  0  0  0  0
   -1.8133   -1.0237   -0.6601 C   0  0  0  0  0  0  0  0  0  0  0  0
   -1.0641   -2.2399   -0.7527 C   0  0  0  0  0  0  0  0  0  0  0  0
    0.1509   -2.3103   -0.4698 C   0  0  0  0  0  0  0  0  0  0  0  0
    1.0578   -1.3039   -0.0176 C   0  0  0  0  0  0  0  0  0  0  0  0
    2.3614   -1.8005    0.1900 C   0  0  0  0  0  0  0  0  0  0  0  0
    3.3692   -0.9848    0.6236 C   0  0  0  0  0  0  0  0  0  0  0  0
    4.6545   -1.4605    0.8315 O   0  0  0  0  0  0  0  0  0  0  0  0
    5.0541   -2.7819    0.6290 C   0  0  0  0  0  0  0  0  0  0  0  0
    3.1126    0.3472    0.8637 C   0  0  0  0  0  0  0  0  0  0  0  0
    1.8348    0.8776    0.6702 C   0  0  0  0  0  0  0  0  0  0  0  0
    0.8689    0.0101    0.2351 C   0  0  0  0  0  0  0  0  0  0  0  0
    1.8869    2.2276    0.9905 O   0  0  0  0  0  0  0  0  0  0  0  0
    3.2571    2.5815    0.9909 C   0  0  0  0  0  0  0  0  0  0  0  0
    3.9528    1.3632    1.3015 O   0  0  0  0  0  0  0  0  0  0  0  0
   -3.1640   -1.1952   -1.0315 C   0  0  0  0  0  0  0  0  0  0  0  0
   -4.0510   -0.1563   -1.0132 C   0  0  0  0  0  0  0  0  0  0  0  0
   -5.4070   -0.3432   -1.3894 N   0  0  0  0  0  0  0  0  0  0  0  0
  1  2  1  0
  2  3  1  0
  3  4  2  0
  4  5  1  0
  5  6  2  0
  6  7  1  0
  7  8  2  0
  8  9  1  0
  9 10  2  0
 10 11  1  0
 11 12  1  0
 12 13  1  0
 11 14  2  0
 14 15  1  0
 15 16  2  0
 15 17  1  0
 17 18  1  0
 18 19  1  0
  6 20  1  0
 20 21  2  0
 21 22  1  0
 21  3  1  0
 16  9  1  0
 19 14  1  0
M  END
>  <zinc_id>  (44) 
ZINC000013493209

>  <smiles>  (44) 
COc1ccc(/C=C\c2cc(OC)c3c(c2)OCO3)cc1N

$$$$

     RDKit          3D

 22 23  0  0  0  0  0  0  0  0999 V2000
   -3.9504   -2.7422   -0.1187 C   0  0  0  0  0  0  0  0  0  0  0  0
   -4.5544   -1.4570   -0.1448 O   0  0  0  0  0  0  0  0  0  0  0  0
   -3.7739   -0.2999   -0.1515 C   0  0  0  0  0  0  0  0  0  0  0  0
   -2.3919   -0.3768   -0.1330 C   0  0  0  0  0  0  0  0  0  0  0  0
   -1.6738    0.8196   -0.1410 C   0  0  0  0  0  0  0  0  0  0  0  0
   -0.2145    0.8408   -0.1229 C   0  0  0  0  0  0  0  0  0  0  0  0
    0.4171   -0.3273   -0.0982 C   0  0  0  0  0  0  0  0  0  0  0  0
    1.8689   -0.2895   -0.0804 C   0  0  0  0  0  0  0  0  0  0  0  0
    2.6081    0.8714   -0.0876 C   0  0  0  0  0  0  0  0  0  0  0  0
    3.9902    0.8562   -0.0700 C   0  0  0  0  0  0  0  0  0  0  0  0
    4.6363   -0.3470   -0.0446 C   0  0  0  0  0  0  0  0  0  0  0  0
    6.0311   -0.4427   -0.0256 O   0  0  0  0  0  0  0  0  0  0  0  0
    6.8690    0.6974   -0.0313 C   0  0  0  0  0  0  0  0  0  0  0  0
    3.9354   -1.5292   -0.0365 C   0  0  0  0  0  0  0  0  0  0  0  0
    2.5478   -1.4855   -0.0546 C   0  0  0  0  0  0  0  0  0  0  0  0
    1.8565   -2.6632   -0.0465 O   0  0  0  0  0  0  0  0  0  0  0  0
    2.4066   -3.9417   -0.0213 C   0  0  0  0  0  0  0  0  0  0  0  0
   -2.3368    2.0411   -0.1669 C   0  0  0  0  0  0  0  0  0  0  0  0
   -3.7141    2.1057   -0.1852 C   0  0  0  0  0  0  0  0  0  0  0  0
   -4.3711    3.3449   -0.2113 O   0  0  0  0  0  0  0  0  0  0  0  0
   -5.7796    3.4074   -0.2299 C   0  0  0  0  0  0  0  0  0  0  0  0
   -4.4065    0.9176   -0.1769 C   0  0  0  0  0  0  0  0  0  0  0  0
  1  2  1  0
  2  3  1  0
  3  4  2  0
  4  5  1  0
  5  6  1  0
  6  7  2  3
  7  8  1  0
  8  9  2  0
  9 10  1  0
 10 11  2  0
 11 12  1  0
 12 13  1  0
 11 14  1  0
 14 15  2  0
 15 16  1  0
 16 17  1  0
  5 18  2  0
 18 19  1  0
 19 20  1  0
 20 21  1  0
 19 22  2  0
 22  3  1  0
 15  8  1  0
M  END
>  <zinc_id>  (45) 
ZINC001857775752

>  <smiles>  (45) 
COc1cc(C=Cc2ccc(OC)cc2OC)cc(OC)c1

$$$$

     RDKit          3D

 28 30  0  0  0  0  0  0  0  0999 V2000
   -4.5508   -3.1055    0.0029 O   0  0  0  0  0  0  0  0  0  0  0  0
   -4.1926   -2.0998    0.9144 C   0  0  0  0  0  0  0  0  0  0  0  0
   -3.6728   -0.9280   -0.0949 C   0  0  2  0  0  0  0  0  0  0  0  0
   -3.3574    0.0440    1.1247 O   0  0  0  0  0  0  0  0  0  0  0  0
   -2.4754    0.8780   -0.0107 C   0  0  2  0  0  0  0  0  0  0  0  0
   -1.7439    1.5207    1.2805 O   0  0  0  0  0  0  0  0  0  0  0  0
   -0.3931    1.2568    0.9044 C   0  0  0  0  0  0  0  0  0  0  0  0
    0.3987    0.9480    2.0374 C   0  0  0  0  0  0  0  0  0  0  0  0
    1.7594    0.6234    1.9197 C   0  0  0  0  0  0  0  0  0  0  0  0
    2.5057    0.3253    3.0440 O   0  0  0  0  0  0  0  0  0  0  0  0
    2.2373    0.6235    0.6393 C   0  0  0  0  0  0  0  0  0  0  0  0
    1.5716    0.9027   -0.4772 C   0  0  0  0  0  0  0  0  0  0  0  0
    1.9491    0.7445   -1.8405 C   0  0  0  0  0  0  0  0  0  0  0  0
    2.9742    0.0804   -2.1492 C   0  0  0  0  0  0  0  0  0  0  0  0
    3.8726   -0.5819   -1.1824 C   0  0  0  0  0  0  0  0  0  0  0  0
    3.9975   -1.9842   -1.1750 C   0  0  0  0  0  0  0  0  0  0  0  0
    4.9341   -2.5435   -0.2558 C   0  0  0  0  0  0  0  0  0  0  0  0
    5.6897   -1.8397    0.5691 C   0  0  0  0  0  0  0  0  0  0  0  0
    6.6154   -2.3873    1.4974 O   0  0  0  0  0  0  0  0  0  0  0  0
    5.5692   -0.4624    0.5547 C   0  0  0  0  0  0  0  0  0  0  0  0
    4.6505    0.1466   -0.3259 C   0  0  0  0  0  0  0  0  0  0  0  0
    0.1642    1.2457   -0.3087 C   0  0  0  0  0  0  0  0  0  0  0  0
   -3.8470    1.9571    0.0018 C   0  0  1  0  0  0  0  0  0  0  0  0
   -3.2465    2.9189   -0.9946 O   0  0  0  0  0  0  0  0  0  0  0  0
   -4.6089    1.0223   -1.2316 C   0  0  2  0  0  0  0  0  0  0  0  0
   -5.9066    1.8800   -1.1085 O   0  0  0  0  0  0  0  0  0  0  0  0
   -5.2774   -0.1479   -0.1896 C   0  0  1  0  0  0  0  0  0  0  0  0
   -5.6168   -1.0378   -1.3666 O   0  0  0  0  0  0  0  0  0  0  0  0
  1  2  1  0
  3  2  1  1
  3  4  1  0
  4  5  1  0
  5  6  1  1
  6  7  1  0
  7  8  2  0
  8  9  1  0
  9 10  1  0
  9 11  2  0
 11 12  1  0
 12 13  1  0
 13 14  2  0
 14 15  1  0
 15 16  2  0
 16 17  1  0
 17 18  2  0
 18 19  1  0
 18 20  1  0
 20 21  2  0
 12 22  2  0
  5 23  1  0
 23 24  1  6
 23 25  1  0
 25 26  1  1
 25 27  1  0
 27 28  1  6
 27  3  1  0
 22  7  1  0
 21 15  1  0
M  END
>  <zinc_id>  (46) 
ZINC000238785594

>  <smiles>  (46) 
OC[C@@H]1O[C@H](Oc2cc(O)cc(/C=C\c3ccc(O)cc3)c2)[C@@H](O)[C@H](O)[C@H]1O

$$$$

     RDKit          3D

 20 21  0  0  0  0  0  0  0  0999 V2000
    3.3721    3.3857    1.3869 C   0  0  0  0  0  0  0  0  0  0  0  0
    3.7215    2.1233    0.8910 O   0  0  0  0  0  0  0  0  0  0  0  0
    2.7929    1.1784    0.5058 C   0  0  0  0  0  0  0  0  0  0  0  0
    1.4147    1.3597    0.5613 C   0  0  0  0  0  0  0  0  0  0  0  0
    0.5450    0.3841    0.1646 C   0  0  0  0  0  0  0  0  0  0  0  0
    0.9068   -0.8120   -0.3048 C   0  0  0  0  0  0  0  0  0  0  0  0
    0.1902   -1.9469   -0.7628 C   0  0  0  0  0  0  0  0  0  0  0  0
   -1.0425   -2.0977   -0.8372 C   0  0  0  0  0  0  0  0  0  0  0  0
   -2.0002   -1.1053   -0.4557 C   0  0  0  0  0  0  0  0  0  0  0  0
   -3.3254   -1.5374   -0.6420 C   0  0  0  0  0  0  0  0  0  0  0  0
   -4.4093   -0.7603   -0.3473 C   0  0  0  0  0  0  0  0  0  0  0  0
   -5.7141   -1.2392   -0.5518 O   0  0  0  0  0  0  0  0  0  0  0  0
   -4.1934    0.5082    0.1569 C   0  0  0  0  0  0  0  0  0  0  0  0
   -2.9005    0.9570    0.3494 C   0  0  0  0  0  0  0  0  0  0  0  0
   -2.6872    2.2561    0.8656 O   0  0  0  0  0  0  0  0  0  0  0  0
   -1.8731    0.1312    0.0347 C   0  0  0  0  0  0  0  0  0  0  0  0
    2.3104   -1.0137   -0.3681 C   0  0  0  0  0  0  0  0  0  0  0  0
    3.1908   -0.0477    0.0249 C   0  0  0  0  0  0  0  0  0  0  0  0
    4.5584   -0.2698   -0.0469 O   0  0  0  0  0  0  0  0  0  0  0  0
    5.1430   -1.4535   -0.5088 C   0  0  0  0  0  0  0  0  0  0  0  0
  1  2  1  0
  2  3  1  0
  3  4  2  0
  4  5  1  0
  5  6  2  0
  6  7  1  0
  7  8  2  0
  8  9  1  0
  9 10  2  0
 10 11  1  0
 11 12  1  0
 11 13  2  0
 13 14  1  0
 14 15  1  0
 14 16  2  0
  6 17  1  0
 17 18  2  0
 18 19  1  0
 19 20  1  0
 18  3  1  0
 16  9  1  0
M  END
>  <zinc_id>  (47) 
ZINC000013340297

>  <smiles>  (47) 
COc1ccc(/C=C\c2cc(O)cc(O)c2)cc1OC

$$$$

     RDKit          3D

 21 22  0  0  0  0  0  0  0  0999 V2000
   -5.4138   -2.0471    1.3015 C   0  0  0  0  0  0  0  0  0  0  0  0
   -4.0165   -1.8923    1.1362 O   0  0  0  0  0  0  0  0  0  0  0  0
   -3.4935   -0.7361    0.5889 C   0  0  0  0  0  0  0  0  0  0  0  0
   -2.1411   -0.5688    0.4212 C   0  0  0  0  0  0  0  0  0  0  0  0
   -1.5998    0.5729   -0.1210 C   0  0  0  0  0  0  0  0  0  0  0  0
   -0.1581    0.6958   -0.2753 C   0  0  0  0  0  0  0  0  0  0  0  0
    0.6983   -0.2217    0.0708 C   0  0  0  0  0  0  0  0  0  0  0  0
    2.1567   -0.0532   -0.1048 C   0  0  0  0  0  0  0  0  0  0  0  0
    2.6377    1.1154   -0.6546 C   0  0  0  0  0  0  0  0  0  0  0  0
    3.9962    1.2900   -0.8260 C   0  0  0  0  0  0  0  0  0  0  0  0
    4.8771    0.2772   -0.4394 C   0  0  0  0  0  0  0  0  0  0  0  0
    6.2453    0.4307   -0.6021 O   0  0  0  0  0  0  0  0  0  0  0  0
    4.4011   -0.8925    0.1105 C   0  0  0  0  0  0  0  0  0  0  0  0
    5.3226   -1.8623    0.4753 O   0  0  0  0  0  0  0  0  0  0  0  0
    4.9125   -3.0866    1.0448 C   0  0  0  0  0  0  0  0  0  0  0  0
    3.0384   -1.0378    0.2692 C   0  0  0  0  0  0  0  0  0  0  0  0
   -2.4751    1.5658   -0.4991 C   0  0  0  0  0  0  0  0  0  0  0  0
   -3.8399    1.4397   -0.3487 C   0  0  0  0  0  0  0  0  0  0  0  0
   -4.7084    2.4451   -0.7328 O   0  0  0  0  0  0  0  0  0  0  0  0
   -6.0976    2.2921   -0.5688 C   0  0  0  0  0  0  0  0  0  0  0  0
   -4.3421    0.2736    0.2015 C   0  0  0  0  0  0  0  0  0  0  0  0
  1  2  1  0
  2  3  1  0
  3  4  2  0
  4  5  1  0
  5  6  1  0
  6  7  2  0
  7  8  1  0
  8  9  2  0
  9 10  1  0
 10 11  2  0
 11 12  1  0
 11 13  1  0
 13 14  1  0
 14 15  1  0
 13 16  2  0
  5 17  2  0
 17 18  1  0
 18 19  1  0
 19 20  1  0
 18 21  2  0
 21  3  1  0
 16  8  1  0
M  END
>  <zinc_id>  (48) 
ZINC000001591265

>  <smiles>  (48) 
COc1cc(/C=C/c2ccc(O)c(OC)c2)cc(OC)c1

$$$$

     RDKit          3D

 17 18  0  0  0  0  0  0  0  0999 V2000
    6.1380    1.2394   -0.2997 O   0  0  0  0  0  0  0  0  0  0  0  0
    4.7948    0.8823   -0.3793 C   0  0  0  0  0  0  0  0  0  0  0  0
    4.3497   -0.0118   -1.3315 C   0  0  0  0  0  0  0  0  0  0  0  0
    3.0137   -0.3572   -1.3989 C   0  0  0  0  0  0  0  0  0  0  0  0
    2.0700    0.1604   -0.5377 C   0  0  0  0  0  0  0  0  0  0  0  0
    0.6628   -0.2403   -0.6527 C   0  0  0  0  0  0  0  0  0  0  0  0
   -0.2786    0.2074    0.1245 C   0  0  0  0  0  0  0  0  0  0  0  0
   -1.6845   -0.1704    0.0365 C   0  0  0  0  0  0  0  0  0  0  0  0
   -2.1783   -1.0482   -0.8837 C   0  0  0  0  0  0  0  0  0  0  0  0
   -3.5252   -1.3486   -0.8946 C   0  0  0  0  0  0  0  0  0  0  0  0
   -4.0989   -2.2297   -1.7982 O   0  0  0  0  0  0  0  0  0  0  0  0
   -4.3855   -0.7625    0.0268 C   0  0  0  0  0  0  0  0  0  0  0  0
   -3.9084    0.1281    0.9666 C   0  0  0  0  0  0  0  0  0  0  0  0
   -4.7789    0.6982    1.8717 O   0  0  0  0  0  0  0  0  0  0  0  0
   -2.5564    0.3990    0.9411 C   0  0  0  0  0  0  0  0  0  0  0  0
    2.5151    1.0538    0.4137 C   0  0  0  0  0  0  0  0  0  0  0  0
    3.8503    1.4002    0.4826 C   0  0  0  0  0  0  0  0  0  0  0  0
  1  2  1  0
  2  3  2  0
  3  4  1  0
  4  5  2  0
  5  6  1  0
  6  7  2  0
  7  8  1  0
  8  9  2  0
  9 10  1  0
 10 11  1  0
 10 12  2  0
 12 13  1  0
 13 14  1  0
 13 15  2  0
  5 16  1  0
 16 17  2  0
 17  2  1  0
 15  8  1  0
M  END
>  <zinc_id>  (49) 
ZINC000000006787

>  <smiles>  (49) 
Oc1ccc(/C=C/c2cc(O)cc(O)c2)cc1

$$$$

     RDKit          3D

 24 25  0  0  0  0  0  0  0  0999 V2000
    7.3859    0.2073    1.5083 C   0  0  0  0  0  0  0  0  0  0  0  0
    6.5738   -0.1245    0.2912 C   0  0  0  0  0  0  0  0  0  0  0  0
    6.6891    0.9020   -0.8015 C   0  0  0  0  0  0  0  0  0  0  0  0
    5.8858    0.4759   -1.8790 O   0  0  0  0  0  0  0  0  0  0  0  0
    4.5099    0.2890   -1.7084 C   0  0  0  0  0  0  0  0  0  0  0  0
    3.9074    0.5098   -0.5099 C   0  0  0  0  0  0  0  0  0  0  0  0
    2.5603    0.3358   -0.3096 C   0  0  0  0  0  0  0  0  0  0  0  0
    1.7697   -0.0805   -1.3586 C   0  0  0  0  0  0  0  0  0  0  0  0
    0.3287   -0.2766   -1.1815 C   0  0  0  0  0  0  0  0  0  0  0  0
   -0.2070   -0.0533   -0.0152 C   0  0  0  0  0  0  0  0  0  0  0  0
   -1.6096   -0.2022    0.3134 C   0  0  0  0  0  0  0  0  0  0  0  0
   -1.9731    0.0907    1.6293 C   0  0  0  0  0  0  0  0  0  0  0  0
   -3.2739   -0.0309    1.9954 C   0  0  0  0  0  0  0  0  0  0  0  0
   -3.6569    0.2608    3.3193 O   0  0  0  0  0  0  0  0  0  0  0  0
   -2.7136    0.6780    4.2759 C   0  0  0  0  0  0  0  0  0  0  0  0
   -4.2192   -0.4374    1.0798 C   0  0  0  0  0  0  0  0  0  0  0  0
   -5.5380   -0.5358    1.5430 O   0  0  0  0  0  0  0  0  0  0  0  0
   -6.4416    0.5500    1.4861 C   0  0  0  0  0  0  0  0  0  0  0  0
   -3.8949   -0.7354   -0.2308 C   0  0  0  0  0  0  0  0  0  0  0  0
   -4.8971   -1.1341   -1.0819 O   0  0  0  0  0  0  0  0  0  0  0  0
   -4.7090   -1.4654   -2.4307 C   0  0  0  0  0  0  0  0  0  0  0  0
   -2.5695   -0.6081   -0.5909 C   0  0  0  0  0  0  0  0  0  0  0  0
    2.3628   -0.3090   -2.5799 C   0  0  0  0  0  0  0  0  0  0  0  0
    3.7302   -0.1271   -2.7638 C   0  0  0  0  0  0  0  0  0  0  0  0
  1  2  1  0
  2  3  1  0
  3  4  1  0
  4  5  1  0
  5  6  2  0
  6  7  1  0
  7  8  2  0
  8  9  1  0
  9 10  2  0
 10 11  1  0
 11 12  2  0
 12 13  1  0
 13 14  1  0
 14 15  1  0
 13 16  2  0
 16 17  1  0
 17 18  1  0
 16 19  1  0
 19 20  1  0
 20 21  1  0
 19 22  2  0
  8 23  1  0
 23 24  2  0
 24  5  1  0
 22 11  1  0
M  END
>  <zinc_id>  (50) 
ZINC000001625549

>  <smiles>  (50) 
CCCOc1ccc(/C=C/c2cc(OC)c(OC)c(OC)c2)cc1

$$$$

     RDKit          3D

 27 29  0  0  0  0  0  0  0  0999 V2000
    3.7030    3.1906   -2.2750 C   0  0  0  0  0  0  0  0  0  0  0  0
    4.4764    2.2324   -1.5413 O   0  0  0  0  0  0  0  0  0  0  0  0
    3.8095    1.2273   -0.8142 C   0  0  0  0  0  0  0  0  0  0  0  0
    2.4490    1.1413   -0.7931 C   0  0  0  0  0  0  0  0  0  0  0  0
    1.7353    0.1719   -0.0925 C   0  0  0  0  0  0  0  0  0  0  0  0
    0.2775    0.1993   -0.1498 C   0  0  0  0  0  0  0  0  0  0  0  0
   -0.3983    1.2088   -0.9128 C   0  0  0  0  0  0  0  0  0  0  0  0
   -0.9543    2.0465   -1.5259 N   0  0  0  0  0  0  0  0  0  0  0  0
   -0.4763   -0.6910    0.4836 C   0  0  0  0  0  0  0  0  0  0  0  0
   -1.9362   -0.6111    0.3891 C   0  0  0  0  0  0  0  0  0  0  0  0
   -2.7429   -1.7263    0.2830 C   0  0  0  0  0  0  0  0  0  0  0  0
   -4.1146   -1.6355    0.2024 C   0  0  0  0  0  0  0  0  0  0  0  0
   -4.8950   -2.7719    0.0960 O   0  0  0  0  0  0  0  0  0  0  0  0
   -4.2932   -4.0492    0.0682 C   0  0  0  0  0  0  0  0  0  0  0  0
   -4.7565   -0.4163    0.2243 C   0  0  0  0  0  0  0  0  0  0  0  0
   -3.9849    0.7130    0.3293 C   0  0  0  0  0  0  0  0  0  0  0  0
   -2.5904    0.6128    0.4103 C   0  0  0  0  0  0  0  0  0  0  0  0
   -4.8564    1.7992    0.3310 O   0  0  0  0  0  0  0  0  0  0  0  0
   -6.1304    1.3587   -0.0799 C   0  0  0  0  0  0  0  0  0  0  0  0
   -6.1123   -0.0508    0.1585 O   0  0  0  0  0  0  0  0  0  0  0  0
    2.4587   -0.7400    0.6106 C   0  0  0  0  0  0  0  0  0  0  0  0
    3.8402   -0.6973    0.6214 C   0  0  0  0  0  0  0  0  0  0  0  0
    4.6250   -1.6079    1.3262 O   0  0  0  0  0  0  0  0  0  0  0  0
    3.9443   -2.6121    2.0563 C   0  0  0  0  0  0  0  0  0  0  0  0
    4.5162    0.2893   -0.0936 C   0  0  0  0  0  0  0  0  0  0  0  0
    5.8925    0.3204   -0.0732 O   0  0  0  0  0  0  0  0  0  0  0  0
    6.5137    1.0978    0.9527 C   0  0  0  0  0  0  0  0  0  0  0  0
  1  2  1  0
  2  3  1  0
  3  4  2  0
  4  5  1  0
  5  6  1  0
  6  7  1  0
  7  8  3  0
  6  9  2  0
  9 10  1  0
 10 11  2  0
 11 12  1  0
 12 13  1  0
 13 14  1  0
 12 15  2  0
 15 16  1  0
 16 17  2  0
 16 18  1  0
 18 19  1  0
 19 20  1  0
  5 21  2  0
 21 22  1  0
 22 23  1  0
 23 24  1  0
 22 25  2  0
 25 26  1  0
 26 27  1  0
 25  3  1  0
 17 10  1  0
 20 15  1  0
M  END
>  <zinc_id>  (51) 
ZINC000066091381

>  <smiles>  (51) 
COc1cc(/C(C#N)=C/c2cc(OC)c3c(c2)OCO3)cc(OC)c1OC

$$$$

     RDKit          3D

 20 21  0  0  0  0  0  0  0  0999 V2000
    6.2404    0.8130   -1.0436 C   0  0  0  0  0  0  0  0  0  0  0  0
    5.3960   -0.2075   -0.5447 O   0  0  0  0  0  0  0  0  0  0  0  0
    4.0288    0.0437   -0.4594 C   0  0  0  0  0  0  0  0  0  0  0  0
    3.4934    1.2652   -0.8521 C   0  0  0  0  0  0  0  0  0  0  0  0
    2.1323    1.4150   -0.7291 C   0  0  0  0  0  0  0  0  0  0  0  0
    1.2873    0.4415   -0.2480 C   0  0  0  0  0  0  0  0  0  0  0  0
   -0.1437    0.6874   -0.1523 C   0  0  0  0  0  0  0  0  0  0  0  0
   -1.0004   -0.1878    0.2930 C   0  0  0  0  0  0  0  0  0  0  0  0
   -2.4434    0.0740    0.3843 C   0  0  0  0  0  0  0  0  0  0  0  0
   -3.2453   -0.9290    0.8709 C   0  0  0  0  0  0  0  0  0  0  0  0
   -4.5981   -0.6983    0.9621 C   0  0  0  0  0  0  0  0  0  0  0  0
   -5.4566   -1.6945    1.4535 O   0  0  0  0  0  0  0  0  0  0  0  0
   -5.1544    0.5128    0.5761 C   0  0  0  0  0  0  0  0  0  0  0  0
   -4.3522    1.5291    0.0844 C   0  0  0  0  0  0  0  0  0  0  0  0
   -4.9299    2.7241   -0.2927 O   0  0  0  0  0  0  0  0  0  0  0  0
   -3.0048    1.2681    0.0054 C   0  0  0  0  0  0  0  0  0  0  0  0
    1.8293   -0.7622    0.1371 C   0  0  0  0  0  0  0  0  0  0  0  0
    3.1908   -0.9523    0.0293 C   0  0  0  0  0  0  0  0  0  0  0  0
    3.7779   -2.1541    0.4078 O   0  0  0  0  0  0  0  0  0  0  0  0
    2.9528   -3.1881    0.9092 C   0  0  0  0  0  0  0  0  0  0  0  0
  1  2  1  0
  2  3  1  0
  3  4  2  0
  4  5  1  0
  5  6  2  0
  6  7  1  0
  7  8  2  0
  8  9  1  0
  9 10  2  0
 10 11  1  0
 11 12  1  0
 11 13  2  0
 13 14  1  0
 14 15  1  0
 14 16  2  0
  6 17  1  0
 17 18  2  0
 18 19  1  0
 19 20  1  0
 18  3  1  0
 16  9  1  0
M  END
>  <zinc_id>  (52) 
ZINC000040898987

>  <smiles>  (52) 
COc1ccc(/C=C/c2cc(O)cc(O)c2)cc1OC

$$$$

     RDKit          3D

 18 19  0  0  0  0  0  0  0  0999 V2000
   -5.1800    0.3591   -0.5872 O   0  0  0  0  0  0  0  0  0  0  0  0
   -3.7876    0.3979   -0.3589 C   0  0  0  0  0  0  0  0  0  0  0  0
   -3.2409    1.4842    0.2876 C   0  0  0  0  0  0  0  0  0  0  0  0
   -1.8584    1.5263    0.5161 C   0  0  0  0  0  0  0  0  0  0  0  0
   -1.3164    2.6255    1.1687 O   0  0  0  0  0  0  0  0  0  0  0  0
   -1.1213    0.4719    0.0780 C   0  0  0  0  0  0  0  0  0  0  0  0
   -1.5941   -0.6162   -0.5584 C   0  0  0  0  0  0  0  0  0  0  0  0
   -0.9731   -1.7852   -1.0736 C   0  0  0  0  0  0  0  0  0  0  0  0
    0.2320   -2.0683   -1.0408 C   0  0  0  0  0  0  0  0  0  0  0  0
    1.2680   -1.2995   -0.4863 C   0  0  0  0  0  0  0  0  0  0  0  0
    2.5462   -1.9024   -0.6089 C   0  0  0  0  0  0  0  0  0  0  0  0
    3.6614   -1.2737   -0.1154 C   0  0  0  0  0  0  0  0  0  0  0  0
    3.6327   -0.0671    0.5077 C   0  0  0  0  0  0  0  0  0  0  0  0
    4.7574    0.5715    1.0077 O   0  0  0  0  0  0  0  0  0  0  0  0
    2.3793    0.5380    0.6351 C   0  0  0  0  0  0  0  0  0  0  0  0
    2.3104    1.7672    1.2640 O   0  0  0  0  0  0  0  0  0  0  0  0
    1.2689   -0.1120    0.1313 C   0  0  0  0  0  0  0  0  0  0  0  0
   -2.9845   -0.6171   -0.7667 C   0  0  0  0  0  0  0  0  0  0  0  0
  1  2  1  0
  2  3  2  0
  3  4  1  0
  4  5  1  0
  4  6  2  0
  6  7  1  0
  7  8  1  0
  8  9  2  0
  9 10  1  0
 10 11  2  0
 11 12  1  0
 12 13  2  0
 13 14  1  0
 13 15  1  0
 15 16  1  0
 15 17  2  0
  7 18  2  0
 18  2  1  0
 17 10  1  0
M  END
>  <zinc_id>  (53) 
ZINC000005552326

>  <smiles>  (53) 
Oc1cc(O)cc(/C=C\c2ccc(O)c(O)c2)c1

$$$$

     RDKit          3D

 20 21  0  0  0  0  0  0  0  0999 V2000
    4.1836   -2.5802    0.7381 O   0  0  0  0  0  0  0  0  0  0  0  0
    3.7532   -1.3318    0.3016 C   0  0  0  0  0  0  0  0  0  0  0  0
    2.3930   -1.0644    0.2712 C   0  0  0  0  0  0  0  0  0  0  0  0
    1.8985    0.1518   -0.1503 C   0  0  0  0  0  0  0  0  0  0  0  0
    0.4741    0.4750   -0.1979 C   0  0  0  0  0  0  0  0  0  0  0  0
   -0.4738   -0.3425    0.1493 C   0  0  0  0  0  0  0  0  0  0  0  0
   -1.8942   -0.0529    0.1138 C   0  0  0  0  0  0  0  0  0  0  0  0
   -2.7578   -1.0533    0.5240 C   0  0  0  0  0  0  0  0  0  0  0  0
   -4.1385   -0.8700    0.5255 C   0  0  0  0  0  0  0  0  0  0  0  0
   -4.9763   -1.9076    0.9481 O   0  0  0  0  0  0  0  0  0  0  0  0
   -4.6471    0.3499    0.1032 C   0  0  0  0  0  0  0  0  0  0  0  0
   -6.0275    0.4929    0.1196 O   0  0  0  0  0  0  0  0  0  0  0  0
   -3.8061    1.3590   -0.3090 C   0  0  0  0  0  0  0  0  0  0  0  0
   -4.3560    2.5652   -0.7242 O   0  0  0  0  0  0  0  0  0  0  0  0
   -2.4396    1.1286   -0.2926 C   0  0  0  0  0  0  0  0  0  0  0  0
    2.8273    1.0931   -0.5420 C   0  0  0  0  0  0  0  0  0  0  0  0
    4.1986    0.8407   -0.5177 C   0  0  0  0  0  0  0  0  0  0  0  0
    5.1083    1.8162   -0.9209 O   0  0  0  0  0  0  0  0  0  0  0  0
    4.6538   -0.3892   -0.0892 C   0  0  0  0  0  0  0  0  0  0  0  0
    6.0264   -0.6806   -0.0506 O   0  0  0  0  0  0  0  0  0  0  0  0
  1  2  1  0
  2  3  2  0
  3  4  1  0
  4  5  1  0
  5  6  2  0
  6  7  1  0
  7  8  2  0
  8  9  1  0
  9 10  1  0
  9 11  2  0
 11 12  1  0
 11 13  1  0
 13 14  1  0
 13 15  2  0
  4 16  2  0
 16 17  1  0
 17 18  1  0
 17 19  2  0
 19 20  1  0
 19  2  1  0
 15  7  1  0
M  END
>  <zinc_id>  (54) 
ZINC000038393465

>  <smiles>  (54) 
Oc1cc(/C=C/c2cc(O)c(O)c(O)c2)cc(O)c1O

$$$$

     RDKit          3D

 23 24  0  0  0  0  0  0  0  0999 V2000
   -6.9507   -1.3265   -1.8211 C   0  0  0  0  0  0  0  0  0  0  0  0
   -6.4522   -1.1041   -0.5342 O   0  0  0  0  0  0  0  0  0  0  0  0
   -5.0979   -0.8522   -0.3516 C   0  0  0  0  0  0  0  0  0  0  0  0
   -4.2398   -0.8195   -1.4295 C   0  0  0  0  0  0  0  0  0  0  0  0
   -2.8763   -0.5686   -1.2709 C   0  0  0  0  0  0  0  0  0  0  0  0
   -2.3600   -0.3462   -0.0122 C   0  0  0  0  0  0  0  0  0  0  0  0
   -0.9230   -0.0800    0.1705 C   0  0  0  0  0  0  0  0  0  0  0  0
   -0.0740   -0.0390   -0.8142 C   0  0  0  0  0  0  0  0  0  0  0  0
    1.3412    0.2387   -0.4878 C   0  0  0  0  0  0  0  0  0  0  0  0
    2.2984    0.2975   -1.4805 C   0  0  0  0  0  0  0  0  0  0  0  0
    3.6079    0.5590   -1.1350 C   0  0  0  0  0  0  0  0  0  0  0  0
    4.6142    0.6274   -2.1166 O   0  0  0  0  0  0  0  0  0  0  0  0
    4.2754    0.4243   -3.4800 C   0  0  0  0  0  0  0  0  0  0  0  0
    4.0008    0.7661    0.1793 C   0  0  0  0  0  0  0  0  0  0  0  0
    5.3086    1.0294    0.5439 O   0  0  0  0  0  0  0  0  0  0  0  0
    6.1713   -0.0499    0.8552 C   0  0  0  0  0  0  0  0  0  0  0  0
    3.0400    0.7079    1.1831 C   0  0  0  0  0  0  0  0  0  0  0  0
    3.4090    0.9112    2.4999 O   0  0  0  0  0  0  0  0  0  0  0  0
    2.4130    0.8468    3.5024 C   0  0  0  0  0  0  0  0  0  0  0  0
    1.7556    0.4485    0.8167 C   0  0  0  0  0  0  0  0  0  0  0  0
   -3.2194   -0.3792    1.0647 C   0  0  0  0  0  0  0  0  0  0  0  0
   -4.5738   -0.6278    0.9138 C   0  0  0  0  0  0  0  0  0  0  0  0
   -5.4681   -0.6637    2.0196 N   0  0  0  0  0  0  0  0  0  0  0  0
  1  2  1  0
  2  3  1  0
  3  4  2  0
  4  5  1  0
  5  6  2  0
  6  7  1  0
  7  8  2  0
  8  9  1  0
  9 10  2  0
 10 11  1  0
 11 12  1  0
 12 13  1  0
 11 14  2  0
 14 15  1  0
 15 16  1  0
 14 17  1  0
 17 18  1  0
 18 19  1  0
 17 20  2  0
  6 21  1  0
 21 22  2  0
 22 23  1  0
 22  3  1  0
 20  9  1  0
M  END
>  <zinc_id>  (55) 
ZINC000038148874

>  <smiles>  (55) 
COc1ccc(/C=C/c2cc(OC)c(OC)c(OC)c2)cc1N

$$$$

     RDKit          3D

 28 30  0  0  0  0  0  0  0  0999 V2000
    5.4398   -1.5293    0.6829 O   0  0  0  0  0  0  0  0  0  0  0  0
    5.6859   -0.1366    0.9176 C   0  0  0  0  0  0  0  0  0  0  0  0
    4.6941    0.4845   -0.2189 C   0  0  1  0  0  0  0  0  0  0  0  0
    3.4502   -0.1195    0.4772 O   0  0  0  0  0  0  0  0  0  0  0  0
    2.3394    0.7600   -0.1508 C   0  0  2  0  0  0  0  0  0  0  0  0
    1.3390   -0.0747   -0.0424 O   0  0  0  0  0  0  0  0  0  0  0  0
    0.4396   -0.9996   -0.0572 C   0  0  0  0  0  0  0  0  0  0  0  0
    0.9239   -2.3179   -0.4816 C   0  0  0  0  0  0  0  0  0  0  0  0
    0.0400   -3.4029   -0.5018 C   0  0  0  0  0  0  0  0  0  0  0  0
    0.5594   -4.6538   -0.9633 O   0  0  0  0  0  0  0  0  0  0  0  0
   -1.2275   -3.2436   -0.1266 C   0  0  0  0  0  0  0  0  0  0  0  0
   -1.7317   -1.9370    0.3071 C   0  0  0  0  0  0  0  0  0  0  0  0
   -3.1096   -2.3095    0.5672 C   0  0  0  0  0  0  0  0  0  0  0  0
   -4.0554   -1.6853    0.6090 C   0  0  0  0  0  0  0  0  0  0  0  0
   -4.2973   -0.3371    0.4296 C   0  0  0  0  0  0  0  0  0  0  0  0
   -5.6712   -0.0639    0.6748 C   0  0  0  0  0  0  0  0  0  0  0  0
   -6.1786    1.1777    0.5577 C   0  0  0  0  0  0  0  0  0  0  0  0
   -5.3981    2.2433    0.1955 C   0  0  0  0  0  0  0  0  0  0  0  0
   -5.9363    3.5020    0.0636 O   0  0  0  0  0  0  0  0  0  0  0  0
   -4.0152    2.0138   -0.0639 C   0  0  0  0  0  0  0  0  0  0  0  0
   -3.5251    0.7100    0.0746 C   0  0  0  0  0  0  0  0  0  0  0  0
   -0.8661   -1.0314    0.2855 C   0  0  0  0  0  0  0  0  0  0  0  0
    2.9830    1.3963   -1.3787 C   0  0  1  0  0  0  0  0  0  0  0  0
    1.8193    2.1345   -1.9176 O   0  0  0  0  0  0  0  0  0  0  0  0
    3.5750    2.8006   -0.4998 C   0  0  2  0  0  0  0  0  0  0  0  0
    4.6338    2.9293   -1.5647 O   0  0  0  0  0  0  0  0  0  0  0  0
    4.6005    1.9756    0.5511 C   0  0  1  0  0  0  0  0  0  0  0  0
    3.4894    1.7144    1.5738 O   0  0  0  0  0  0  0  0  0  0  0  0
  1  2  1  0
  3  2  1  1
  3  4  1  0
  4  5  1  0
  5  6  1  6
  6  7  1  0
  7  8  2  0
  8  9  1  0
  9 10  1  0
  9 11  2  0
 11 12  1  0
 12 13  1  0
 13 14  2  0
 14 15  1  0
 15 16  2  0
 16 17  1  0
 17 18  2  0
 18 19  1  0
 18 20  1  0
 20 21  2  0
 12 22  2  0
  5 23  1  0
 23 24  1  6
 23 25  1  0
 25 26  1  6
 25 27  1  0
 27 28  1  1
 27  3  1  0
 22  7  1  0
 21 15  1  0
M  END
>  <zinc_id>  (56) 
ZINC001857524379

>  <smiles>  (56) 
OC[C@H]1O[C@H](Oc2cc(O)cc(/C=C\c3ccc(O)cc3)c2)[C@@H](O)[C@H](O)[C@H]1O

$$$$

     RDKit          3D

 25 26  0  0  0  0  0  0  0  0999 V2000
    7.7232   -0.3229    0.1096 C   0  0  0  0  0  0  0  0  0  0  0  0
    6.6251   -1.1989    0.0973 O   0  0  0  0  0  0  0  0  0  0  0  0
    5.3099   -0.7654    0.0779 C   0  0  0  0  0  0  0  0  0  0  0  0
    4.9544    0.5620    0.0688 C   0  0  0  0  0  0  0  0  0  0  0  0
    3.6248    0.9293    0.0494 C   0  0  0  0  0  0  0  0  0  0  0  0
    2.6014    0.0056    0.0383 C   0  0  0  0  0  0  0  0  0  0  0  0
    1.2004    0.4496    0.0177 C   0  0  0  0  0  0  0  0  0  0  0  0
    0.1955   -0.3821    0.0064 C   0  0  0  0  0  0  0  0  0  0  0  0
   -1.1607    0.1525   -0.0138 C   0  0  0  0  0  0  0  0  0  0  0  0
   -1.4048    1.5023   -0.0214 C   0  0  0  0  0  0  0  0  0  0  0  0
   -2.6895    1.9553   -0.0404 C   0  0  0  0  0  0  0  0  0  0  0  0
   -3.0183    3.3209   -0.0492 O   0  0  0  0  0  0  0  0  0  0  0  0
   -1.9861    4.2882   -0.0380 C   0  0  0  0  0  0  0  0  0  0  0  0
   -3.7472    1.0595   -0.0521 C   0  0  0  0  0  0  0  0  0  0  0  0
   -5.0471    1.5240   -0.0714 O   0  0  0  0  0  0  0  0  0  0  0  0
   -5.7202    1.7667   -1.2921 C   0  0  0  0  0  0  0  0  0  0  0  0
   -3.5341   -0.3015   -0.0450 C   0  0  0  0  0  0  0  0  0  0  0  0
   -4.5991   -1.1828   -0.0568 O   0  0  0  0  0  0  0  0  0  0  0  0
   -5.1614   -1.6659   -1.2851 C   0  0  0  0  0  0  0  0  0  0  0  0
   -2.2248   -0.7190   -0.0257 C   0  0  0  0  0  0  0  0  0  0  0  0
   -1.9649   -2.0877   -0.0179 O   0  0  0  0  0  0  0  0  0  0  0  0
   -1.8175   -2.7785   -1.2530 C   0  0  0  0  0  0  0  0  0  0  0  0
    2.9611   -1.3263    0.0474 C   0  0  0  0  0  0  0  0  0  0  0  0
    4.3019   -1.7049    0.0669 C   0  0  0  0  0  0  0  0  0  0  0  0
    4.5779   -3.0799    0.0750 O   0  0  0  0  0  0  0  0  0  0  0  0
  1  2  1  0
  2  3  1  0
  3  4  2  0
  4  5  1  0
  5  6  2  0
  6  7  1  0
  7  8  2  0
  8  9  1  0
  9 10  2  0
 10 11  1  0
 11 12  1  0
 12 13  1  0
 11 14  2  0
 14 15  1  0
 15 16  1  0
 14 17  1  0
 17 18  1  0
 18 19  1  0
 17 20  2  0
 20 21  1  0
 21 22  1  0
  6 23  1  0
 23 24  2  0
 24 25  1  0
 24  3  1  0
 20  9  1  0
M  END
>  <zinc_id>  (57) 
ZINC000066252292

>  <smiles>  (57) 
COc1ccc(/C=C/c2cc(OC)c(OC)c(OC)c2OC)cc1O

$$$$

     RDKit          3D

 24 25  0  0  0  0  0  0  0  0999 V2000
   -7.3142    0.8991   -0.1772 C   0  0  0  0  0  0  0  0  0  0  0  0
   -6.4960   -0.2484   -0.3097 O   0  0  0  0  0  0  0  0  0  0  0  0
   -5.0983   -0.0756   -0.2738 C   0  0  0  0  0  0  0  0  0  0  0  0
   -4.5268    1.1707   -0.1145 C   0  0  0  0  0  0  0  0  0  0  0  0
   -3.1611    1.3611   -0.0768 C   0  0  0  0  0  0  0  0  0  0  0  0
   -2.3231    0.2983   -0.1987 C   0  0  0  0  0  0  0  0  0  0  0  0
   -0.8758    0.5005   -0.1586 C   0  0  0  0  0  0  0  0  0  0  0  0
   -0.0072   -0.4788   -0.2699 C   0  0  0  0  0  0  0  0  0  0  0  0
    1.4156   -0.1791   -0.2181 C   0  0  0  0  0  0  0  0  0  0  0  0
    1.8751    1.1047   -0.0554 C   0  0  0  0  0  0  0  0  0  0  0  0
    3.2290    1.4020   -0.0046 C   0  0  0  0  0  0  0  0  0  0  0  0
    3.6729    2.7043    0.1602 O   0  0  0  0  0  0  0  0  0  0  0  0
    2.8258    3.8058    0.2867 C   0  0  0  0  0  0  0  0  0  0  0  0
    4.1081    0.3516   -0.1246 C   0  0  0  0  0  0  0  0  0  0  0  0
    5.4707    0.6823   -0.0696 O   0  0  0  0  0  0  0  0  0  0  0  0
    6.1790    0.7101    1.1562 C   0  0  0  0  0  0  0  0  0  0  0  0
    3.6939   -0.9547   -0.2895 C   0  0  0  0  0  0  0  0  0  0  0  0
    4.6481   -1.9635   -0.4036 O   0  0  0  0  0  0  0  0  0  0  0  0
    4.2251   -3.3096   -0.5736 C   0  0  0  0  0  0  0  0  0  0  0  0
    2.3365   -1.1980   -0.3337 C   0  0  0  0  0  0  0  0  0  0  0  0
   -2.8740   -0.9591   -0.3591 C   0  0  0  0  0  0  0  0  0  0  0  0
   -1.9935   -2.0501   -0.4840 O   0  0  0  0  0  0  0  0  0  0  0  0
   -4.2407   -1.1437   -0.3961 C   0  0  0  0  0  0  0  0  0  0  0  0
   -4.7688   -2.4300   -0.5598 O   0  0  0  0  0  0  0  0  0  0  0  0
  1  2  1  0
  2  3  1  0
  3  4  2  0
  4  5  1  0
  5  6  2  0
  6  7  1  0
  7  8  2  0
  8  9  1  0
  9 10  2  0
 10 11  1  0
 11 12  1  0
 12 13  1  0
 11 14  2  0
 14 15  1  0
 15 16  1  0
 14 17  1  0
 17 18  1  0
 18 19  1  0
 17 20  2  0
  6 21  1  0
 21 22  1  0
 21 23  2  0
 23 24  1  0
 23  3  1  0
 20  9  1  0
M  END
>  <zinc_id>  (58) 
ZINC000001607446

>  <smiles>  (58) 
COc1ccc(/C=C/c2cc(OC)c(OC)c(OC)c2)c(O)c1O

$$$$

     RDKit          3D

 21 22  0  0  0  0  0  0  0  0999 V2000
   -2.3264   -3.3813   -0.4488 C   0  0  0  0  0  0  0  0  0  0  0  0
   -3.1826   -2.3035   -0.1249 O   0  0  0  0  0  0  0  0  0  0  0  0
   -2.6743   -1.0282    0.0609 C   0  0  0  0  0  0  0  0  0  0  0  0
   -1.3360   -0.8217   -0.0719 C   0  0  0  0  0  0  0  0  0  0  0  0
   -0.7335    0.4125    0.0937 C   0  0  0  0  0  0  0  0  0  0  0  0
    0.6966    0.6338   -0.0481 C   0  0  0  0  0  0  0  0  0  0  0  0
    1.5566   -0.3005   -0.3441 C   0  0  0  0  0  0  0  0  0  0  0  0
    3.0064   -0.0499   -0.4827 C   0  0  0  0  0  0  0  0  0  0  0  0
    3.8089   -1.1318   -0.8004 C   0  0  0  0  0  0  0  0  0  0  0  0
    5.1729   -0.9863   -0.9486 C   0  0  0  0  0  0  0  0  0  0  0  0
    5.7284    0.2693   -0.7727 C   0  0  0  0  0  0  0  0  0  0  0  0
    7.0961    0.3829   -0.9276 O   0  0  0  0  0  0  0  0  0  0  0  0
    4.9104    1.3413   -0.4549 C   0  0  0  0  0  0  0  0  0  0  0  0
    3.5462    1.1966   -0.3066 C   0  0  0  0  0  0  0  0  0  0  0  0
   -1.5687    1.4644    0.4097 C   0  0  0  0  0  0  0  0  0  0  0  0
   -2.9445    1.2746    0.5506 C   0  0  0  0  0  0  0  0  0  0  0  0
   -3.7947    2.3240    0.8680 O   0  0  0  0  0  0  0  0  0  0  0  0
   -3.2984    3.6311    1.0617 C   0  0  0  0  0  0  0  0  0  0  0  0
   -3.4903    0.0290    0.3755 C   0  0  0  0  0  0  0  0  0  0  0  0
   -4.8636   -0.2232    0.5038 O   0  0  0  0  0  0  0  0  0  0  0  0
   -5.3095   -0.5809    1.8073 C   0  0  0  0  0  0  0  0  0  0  0  0
  1  2  1  0
  2  3  1  0
  3  4  2  0
  4  5  1  0
  5  6  1  0
  6  7  2  0
  7  8  1  0
  8  9  2  0
  9 10  1  0
 10 11  2  0
 11 12  1  0
 11 13  1  0
 13 14  2  0
  5 15  2  0
 15 16  1  0
 16 17  1  0
 17 18  1  0
 16 19  2  0
 19 20  1  0
 20 21  1  0
 19  3  1  0
 14  8  1  0
M  END
>  <zinc_id>  (59) 
ZINC000001612318

>  <smiles>  (59) 
COc1cc(/C=C/c2ccc(O)cc2)cc(OC)c1OC

$$$$

     RDKit          3D

 21 22  0  0  0  0  0  0  0  0999 V2000
   -4.3898    2.4938   -1.3429 C   0  0  0  0  0  0  0  0  0  0  0  0
   -4.1118    1.5617   -0.3305 O   0  0  0  0  0  0  0  0  0  0  0  0
   -2.8125    1.0629   -0.1725 C   0  0  0  0  0  0  0  0  0  0  0  0
   -1.8038    1.4795   -1.0030 C   0  0  0  0  0  0  0  0  0  0  0  0
   -0.4897    0.9825   -0.8521 C   0  0  0  0  0  0  0  0  0  0  0  0
    0.4687    1.4929   -1.7770 C   0  0  0  0  0  0  0  0  0  0  0  0
    1.6659    1.1999   -1.8288 C   0  0  0  0  0  0  0  0  0  0  0  0
    2.3848    0.3029   -1.0050 C   0  0  0  0  0  0  0  0  0  0  0  0
    2.0551   -0.4870    0.0417 C   0  0  0  0  0  0  0  0  0  0  0  0
    2.9035   -1.3181    0.7442 C   0  0  0  0  0  0  0  0  0  0  0  0
    4.2412   -1.3655    0.3543 C   0  0  0  0  0  0  0  0  0  0  0  0
    5.1487   -2.1666    1.0016 O   0  0  0  0  0  0  0  0  0  0  0  0
    4.6189   -0.5892   -0.6922 C   0  0  0  0  0  0  0  0  0  0  0  0
    3.7566    0.2137   -1.3567 C   0  0  0  0  0  0  0  0  0  0  0  0
   -0.3577    0.0912    0.1607 C   0  0  0  0  0  0  0  0  0  0  0  0
   -1.3509   -0.3443    1.0085 C   0  0  0  0  0  0  0  0  0  0  0  0
   -1.1621   -1.2593    2.0303 O   0  0  0  0  0  0  0  0  0  0  0  0
    0.0190   -1.8911    2.3855 C   0  0  0  0  0  0  0  0  0  0  0  0
   -2.6434    0.1598    0.8419 C   0  0  0  0  0  0  0  0  0  0  0  0
   -3.6745   -0.2471    1.6684 O   0  0  0  0  0  0  0  0  0  0  0  0
   -4.4663   -1.3726    1.3254 C   0  0  0  0  0  0  0  0  0  0  0  0
  1  2  1  0
  2  3  1  0
  3  4  2  0
  4  5  1  0
  5  6  1  0
  6  7  2  0
  7  8  1  0
  8  9  2  0
  9 10  1  0
 10 11  2  0
 11 12  1  0
 11 13  1  0
 13 14  2  0
  5 15  2  0
 15 16  1  0
 16 17  1  0
 17 18  1  0
 16 19  2  0
 19 20  1  0
 20 21  1  0
 19  3  1  0
 14  8  1  0
M  END
>  <zinc_id>  (60) 
ZINC000005890470

>  <smiles>  (60) 
COc1cc(/C=C\c2ccc(O)cc2)cc(OC)c1OC

$$$$

     RDKit          3D

 22 24  0  0  0  0  0  0  0  0999 V2000
   -7.0478    0.9954   -0.3673 C   0  0  0  0  0  0  0  0  0  0  0  0
   -6.3959    0.0204    0.4161 O   0  0  0  0  0  0  0  0  0  0  0  0
   -5.0075   -0.0576    0.4079 C   0  0  0  0  0  0  0  0  0  0  0  0
   -4.2717    0.8123   -0.3607 C   0  0  0  0  0  0  0  0  0  0  0  0
   -2.9008    0.7712   -0.3988 C   0  0  0  0  0  0  0  0  0  0  0  0
   -2.2124   -0.1588    0.3449 C   0  0  0  0  0  0  0  0  0  0  0  0
   -0.7616   -0.2628    0.3554 C   0  0  0  0  0  0  0  0  0  0  0  0
    0.0470    0.4928   -0.3212 C   0  0  0  0  0  0  0  0  0  0  0  0
    1.4945    0.4000   -0.3200 C   0  0  0  0  0  0  0  0  0  0  0  0
    2.1326   -0.5517    0.4445 C   0  0  0  0  0  0  0  0  0  0  0  0
    3.5053   -0.6843    0.4830 C   0  0  0  0  0  0  0  0  0  0  0  0
    4.1182   -1.6556    1.2653 O   0  0  0  0  0  0  0  0  0  0  0  0
    3.2997   -2.5187    2.0326 C   0  0  0  0  0  0  0  0  0  0  0  0
    4.2514    0.1903   -0.2900 C   0  0  0  0  0  0  0  0  0  0  0  0
    3.6630    1.1592   -1.0716 C   0  0  0  0  0  0  0  0  0  0  0  0
    2.2845    1.2430   -1.0689 C   0  0  0  0  0  0  0  0  0  0  0  0
    4.6467    1.8994   -1.7446 O   0  0  0  0  0  0  0  0  0  0  0  0
    5.9042    1.4707   -1.2611 C   0  0  0  0  0  0  0  0  0  0  0  0
    5.6110    0.3192   -0.4701 O   0  0  0  0  0  0  0  0  0  0  0  0
   -2.9506   -1.0266    1.1119 C   0  0  0  0  0  0  0  0  0  0  0  0
   -4.3277   -0.9939    1.1573 C   0  0  0  0  0  0  0  0  0  0  0  0
   -5.0822   -1.8637    1.9270 O   0  0  0  0  0  0  0  0  0  0  0  0
  1  2  1  0
  2  3  1  0
  3  4  2  0
  4  5  1  0
  5  6  2  0
  6  7  1  0
  7  8  2  0
  8  9  1  0
  9 10  2  0
 10 11  1  0
 11 12  1  0
 12 13  1  0
 11 14  2  0
 14 15  1  0
 15 16  2  0
 15 17  1  0
 17 18  1  0
 18 19  1  0
  6 20  1  0
 20 21  2  0
 21 22  1  0
 21  3  1  0
 16  9  1  0
 19 14  1  0
M  END
>  <zinc_id>  (61) 
ZINC000017175933

>  <smiles>  (61) 
COc1ccc(/C=C/c2cc(OC)c3c(c2)OCO3)cc1O

$$$$

     RDKit          3D

 22 23  0  0  0  0  0  0  0  0999 V2000
   -5.6026   -0.4957   -1.8683 C   0  0  0  0  0  0  0  0  0  0  0  0
   -5.1444   -0.0178   -0.6073 O   0  0  0  0  0  0  0  0  0  0  0  0
   -3.7640   -0.0817   -0.3310 C   0  0  0  0  0  0  0  0  0  0  0  0
   -2.8845   -0.5789   -1.2245 C   0  0  0  0  0  0  0  0  0  0  0  0
   -1.4914   -0.6551   -0.9755 C   0  0  0  0  0  0  0  0  0  0  0  0
   -0.7919   -1.2732   -2.0415 C   0  0  0  0  0  0  0  0  0  0  0  0
    0.4179   -1.3678   -2.1822 C   0  0  0  0  0  0  0  0  0  0  0  0
    1.4407   -0.8817   -1.3353 C   0  0  0  0  0  0  0  0  0  0  0  0
    2.7626   -1.3319   -1.5834 C   0  0  0  0  0  0  0  0  0  0  0  0
    3.8136   -0.8529   -0.8599 C   0  0  0  0  0  0  0  0  0  0  0  0
    3.6899    0.0785    0.1406 C   0  0  0  0  0  0  0  0  0  0  0  0
    4.7795    0.5420    0.8542 O   0  0  0  0  0  0  0  0  0  0  0  0
    6.0997    0.0998    0.6156 C   0  0  0  0  0  0  0  0  0  0  0  0
    2.3943    0.5352    0.3997 C   0  0  0  0  0  0  0  0  0  0  0  0
    2.3061    1.4711    1.4044 O   0  0  0  0  0  0  0  0  0  0  0  0
    1.2116    2.1323    1.9058 C   0  0  0  0  0  0  0  0  0  0  0  0
    1.3473    0.0375   -0.3417 C   0  0  0  0  0  0  0  0  0  0  0  0
   -1.1211   -0.1879    0.2307 C   0  0  0  0  0  0  0  0  0  0  0  0
   -1.9890    0.3246    1.1662 C   0  0  0  0  0  0  0  0  0  0  0  0
   -1.6112    0.8018    2.4066 O   0  0  0  0  0  0  0  0  0  0  0  0
   -2.5162    1.3218    3.3484 C   0  0  0  0  0  0  0  0  0  0  0  0
   -3.3468    0.3799    0.8784 C   0  0  0  0  0  0  0  0  0  0  0  0
  1  2  1  0
  2  3  1  0
  3  4  2  0
  4  5  1  0
  5  6  1  0
  6  7  2  0
  7  8  1  0
  8  9  2  0
  9 10  1  0
 10 11  2  0
 11 12  1  0
 12 13  1  0
 11 14  1  0
 14 15  1  0
 15 16  1  0
 14 17  2  0
  5 18  2  0
 18 19  1  0
 19 20  1  0
 20 21  1  0
 19 22  2  0
 22  3  1  0
 17  8  1  0
M  END
>  <zinc_id>  (62) 
ZINC000013340303

>  <smiles>  (62) 
COc1cc(/C=C\c2ccc(OC)c(OC)c2)cc(OC)c1

$$$$

     RDKit          3D

 24 26  0  0  0  0  0  0  0  0999 V2000
    7.2501   -1.0560    1.1333 C   0  0  0  0  0  0  0  0  0  0  0  0
    6.4822   -0.1361    0.3807 O   0  0  0  0  0  0  0  0  0  0  0  0
    5.0829   -0.2111    0.4193 C   0  0  0  0  0  0  0  0  0  0  0  0
    4.4047   -1.1436    1.1597 C   0  0  0  0  0  0  0  0  0  0  0  0
    3.0228   -1.2217    1.2011 C   0  0  0  0  0  0  0  0  0  0  0  0
    2.2944   -0.3158    0.4604 C   0  0  0  0  0  0  0  0  0  0  0  0
    0.8154   -0.3600    0.4730 C   0  0  0  0  0  0  0  0  0  0  0  0
    0.1133    0.5071   -0.2361 C   0  0  0  0  0  0  0  0  0  0  0  0
   -1.3489    0.4322   -0.1985 C   0  0  0  0  0  0  0  0  0  0  0  0
   -2.1076    1.3292   -0.9326 C   0  0  0  0  0  0  0  0  0  0  0  0
   -3.4734    1.3000   -0.9303 C   0  0  0  0  0  0  0  0  0  0  0  0
   -4.2714    2.1749   -1.6472 O   0  0  0  0  0  0  0  0  0  0  0  0
   -3.6243    3.1650   -2.4344 C   0  0  0  0  0  0  0  0  0  0  0  0
   -4.0984    0.3358   -0.1637 C   0  0  0  0  0  0  0  0  0  0  0  0
   -3.3899   -0.5779    0.5831 C   0  0  0  0  0  0  0  0  0  0  0  0
   -2.0168   -0.5142    0.5532 C   0  0  0  0  0  0  0  0  0  0  0  0
   -1.2949   -1.4280    1.3002 O   0  0  0  0  0  0  0  0  0  0  0  0
   -0.8994   -2.6745    0.7448 C   0  0  0  0  0  0  0  0  0  0  0  0
   -4.2517   -1.4320    1.2574 O   0  0  0  0  0  0  0  0  0  0  0  0
   -5.5555   -1.1839    0.7426 C   0  0  0  0  0  0  0  0  0  0  0  0
   -5.4444    0.0590    0.0383 O   0  0  0  0  0  0  0  0  0  0  0  0
    2.9522    0.6369   -0.2966 C   0  0  0  0  0  0  0  0  0  0  0  0
    4.3350    0.6852   -0.3140 C   0  0  0  0  0  0  0  0  0  0  0  0
    5.0235    1.6296   -1.0637 O   0  0  0  0  0  0  0  0  0  0  0  0
  1  2  1  0
  2  3  1  0
  3  4  2  0
  4  5  1  0
  5  6  2  0
  6  7  1  0
  7  8  2  0
  8  9  1  0
  9 10  2  0
 10 11  1  0
 11 12  1  0
 12 13  1  0
 11 14  2  0
 14 15  1  0
 15 16  2  0
 16 17  1  0
 17 18  1  0
 15 19  1  0
 19 20  1  0
 20 21  1  0
  6 22  1  0
 22 23  2  0
 23 24  1  0
 23  3  1  0
 16  9  1  0
 21 14  1  0
M  END
>  <zinc_id>  (63) 
ZINC000035326369

>  <smiles>  (63) 
COc1ccc(/C=C/c2cc(OC)c3c(c2OC)OCO3)cc1O

$$$$

     RDKit          3D

 25 26  0  0  0  0  0  0  0  0999 V2000
    6.5475    0.5037   -0.0956 C   0  0  0  0  0  0  0  0  0  0  0  0
    5.2903    0.1353   -0.5703 O   0  0  0  0  0  0  0  0  0  0  0  0
    4.1594    0.0746    0.2261 C   0  0  0  0  0  0  0  0  0  0  0  0
    4.1595    0.3680    1.5523 C   0  0  0  0  0  0  0  0  0  0  0  0
    3.0350    0.2963    2.2928 C   0  0  0  0  0  0  0  0  0  0  0  0
    1.7935   -0.0805    1.7650 C   0  0  0  0  0  0  0  0  0  0  0  0
    0.7532   -0.2103    2.6957 C   0  0  0  0  0  0  0  0  0  0  0  0
   -0.4600   -0.2904    2.4782 C   0  0  0  0  0  0  0  0  0  0  0  0
   -1.1677   -0.2536    1.2595 C   0  0  0  0  0  0  0  0  0  0  0  0
   -2.2330   -1.1718    1.1373 C   0  0  0  0  0  0  0  0  0  0  0  0
   -3.0988   -1.2066    0.0824 C   0  0  0  0  0  0  0  0  0  0  0  0
   -4.1440   -2.1279   -0.0104 O   0  0  0  0  0  0  0  0  0  0  0  0
   -4.3766   -3.0970    0.9948 C   0  0  0  0  0  0  0  0  0  0  0  0
   -2.9512   -0.3009   -0.9458 C   0  0  0  0  0  0  0  0  0  0  0  0
   -3.8184   -0.3084   -2.0440 O   0  0  0  0  0  0  0  0  0  0  0  0
   -3.5042   -1.1069   -3.1950 C   0  0  0  0  0  0  0  0  0  0  0  0
   -1.9331    0.6023   -0.8584 C   0  0  0  0  0  0  0  0  0  0  0  0
   -1.7830    1.5120   -1.8883 O   0  0  0  0  0  0  0  0  0  0  0  0
   -2.4451    2.7788   -1.8576 C   0  0  0  0  0  0  0  0  0  0  0  0
   -1.0465    0.6419    0.2212 C   0  0  0  0  0  0  0  0  0  0  0  0
   -0.0920    1.6303    0.1546 O   0  0  0  0  0  0  0  0  0  0  0  0
   -0.4069    2.8961    0.7121 C   0  0  0  0  0  0  0  0  0  0  0  0
    1.8208   -0.3700    0.4311 C   0  0  0  0  0  0  0  0  0  0  0  0
    2.9568   -0.3063   -0.3564 C   0  0  0  0  0  0  0  0  0  0  0  0
    2.9446   -0.6086   -1.7106 O   0  0  0  0  0  0  0  0  0  0  0  0
  1  2  1  0
  2  3  1  0
  3  4  2  0
  4  5  1  0
  5  6  2  0
  6  7  1  0
  7  8  2  0
  8  9  1  0
  9 10  2  0
 10 11  1  0
 11 12  1  0
 12 13  1  0
 11 14  2  0
 14 15  1  0
 15 16  1  0
 14 17  1  0
 17 18  1  0
 18 19  1  0
 17 20  2  0
 20 21  1  0
 21 22  1  0
  6 23  1  0
 23 24  2  0
 24 25  1  0
 24  3  1  0
 20  9  1  0
M  END
>  <zinc_id>  (64) 
ZINC000066088590

>  <smiles>  (64) 
COc1ccc(/C=C\c2cc(OC)c(OC)c(OC)c2OC)cc1O

$$$$

     RDKit          3D

 27 29  0  0  0  0  0  0  0  0999 V2000
   -1.7258    0.0860   -3.2439 C   0  0  0  0  0  0  0  0  0  0  0  0
   -2.4292    0.7708   -2.2503 O   0  0  0  0  0  0  0  0  0  0  0  0
   -2.3245    0.4107   -0.9022 C   0  0  0  0  0  0  0  0  0  0  0  0
   -1.5282   -0.6327   -0.4902 C   0  0  0  0  0  0  0  0  0  0  0  0
   -1.3747   -1.0469    0.8101 C   0  0  0  0  0  0  0  0  0  0  0  0
   -0.5277   -2.1291    1.1606 C   0  0  0  0  0  0  0  0  0  0  0  0
    0.7262   -2.2588    0.8884 C   0  0  0  0  0  0  0  0  0  0  0  0
    1.4556   -3.4680    1.3270 C   0  0  0  0  0  0  0  0  0  0  0  0
    2.0425   -4.4013    1.6628 N   0  0  0  0  0  0  0  0  0  0  0  0
    1.4625   -1.1952    0.2338 C   0  0  0  0  0  0  0  0  0  0  0  0
    1.0450    0.0367   -0.0917 C   0  0  0  0  0  0  0  0  0  0  0  0
    1.8543    0.9523   -0.7147 C   0  0  0  0  0  0  0  0  0  0  0  0
    1.4407    2.2251   -1.0547 O   0  0  0  0  0  0  0  0  0  0  0  0
    0.1456    2.7041   -0.7922 C   0  0  0  0  0  0  0  0  0  0  0  0
    3.1717    0.6180   -1.0365 C   0  0  0  0  0  0  0  0  0  0  0  0
    3.6339   -0.6348   -0.7185 C   0  0  0  0  0  0  0  0  0  0  0  0
    2.7870   -1.5093   -0.0980 C   0  0  0  0  0  0  0  0  0  0  0  0
    4.9620   -0.6770   -1.1551 O   0  0  0  0  0  0  0  0  0  0  0  0
    5.3764    0.6173   -1.5679 C   0  0  0  0  0  0  0  0  0  0  0  0
    4.1722    1.3582   -1.6586 O   0  0  0  0  0  0  0  0  0  0  0  0
   -2.1156   -0.3085    1.7539 C   0  0  0  0  0  0  0  0  0  0  0  0
   -2.9228    0.7435    1.3712 C   0  0  0  0  0  0  0  0  0  0  0  0
   -3.6436    1.4532    2.3460 O   0  0  0  0  0  0  0  0  0  0  0  0
   -3.5511    1.1044    3.7114 C   0  0  0  0  0  0  0  0  0  0  0  0
   -3.0396    1.1164    0.0516 C   0  0  0  0  0  0  0  0  0  0  0  0
   -3.8675    2.1906   -0.3140 O   0  0  0  0  0  0  0  0  0  0  0  0
   -5.2252    1.8741   -0.6203 C   0  0  0  0  0  0  0  0  0  0  0  0
  1  2  1  0
  2  3  1  0
  3  4  2  0
  4  5  1  0
  5  6  1  0
  6  7  2  0
  7  8  1  0
  8  9  3  0
  7 10  1  0
 10 11  2  0
 11 12  1  0
 12 13  1  0
 13 14  1  0
 12 15  2  0
 15 16  1  0
 16 17  2  0
 16 18  1  0
 18 19  1  0
 19 20  1  0
  5 21  2  0
 21 22  1  0
 22 23  1  0
 23 24  1  0
 22 25  2  0
 25 26  1  0
 26 27  1  0
 25  3  1  0
 17 10  1  0
 20 15  1  0
M  END
>  <zinc_id>  (65) 
ZINC000096137297

>  <smiles>  (65) 
COc1cc(/C=C(/C#N)c2cc(OC)c3c(c2)OCO3)cc(OC)c1OC

$$$$

     RDKit          3D

 28 30  0  0  0  0  0  0  0  0999 V2000
   -6.3175    2.4440    0.9020 O   0  0  0  0  0  0  0  0  0  0  0  0
   -5.2426    3.1115    1.2850 C   0  0  0  0  0  0  0  0  0  0  0  0
   -3.8569    2.5203    0.6191 C   0  0  1  0  0  0  0  0  0  0  0  0
   -3.9795    1.1080    1.1967 O   0  0  0  0  0  0  0  0  0  0  0  0
   -2.5062    0.7862    0.7046 C   0  0  1  0  0  0  0  0  0  0  0  0
   -2.5199   -0.5742    1.4679 O   0  0  0  0  0  0  0  0  0  0  0  0
   -1.2881   -1.1792    1.3532 C   0  0  0  0  0  0  0  0  0  0  0  0
   -1.1313   -2.4472    1.9380 C   0  0  0  0  0  0  0  0  0  0  0  0
    0.0654   -3.1271    1.8763 C   0  0  0  0  0  0  0  0  0  0  0  0
    0.2077   -4.3903    2.4636 O   0  0  0  0  0  0  0  0  0  0  0  0
    1.1479   -2.5929    1.2424 C   0  0  0  0  0  0  0  0  0  0  0  0
    1.0244   -1.3663    0.6672 C   0  0  0  0  0  0  0  0  0  0  0  0
    2.1375   -0.7327   -0.0270 C   0  0  0  0  0  0  0  0  0  0  0  0
    3.3038   -1.3356   -0.1172 C   0  0  0  0  0  0  0  0  0  0  0  0
    4.4206   -0.6743   -0.8266 C   0  0  0  0  0  0  0  0  0  0  0  0
    4.2306    0.5609   -1.3837 C   0  0  0  0  0  0  0  0  0  0  0  0
    5.2941    1.1448   -2.0361 C   0  0  0  0  0  0  0  0  0  0  0  0
    6.5005    0.5094   -2.1235 C   0  0  0  0  0  0  0  0  0  0  0  0
    7.5388    1.1381   -2.7899 O   0  0  0  0  0  0  0  0  0  0  0  0
    6.7126   -0.7449   -1.5642 C   0  0  0  0  0  0  0  0  0  0  0  0
    5.6368   -1.3197   -0.9122 C   0  0  0  0  0  0  0  0  0  0  0  0
   -0.1752   -0.6903    0.7319 C   0  0  0  0  0  0  0  0  0  0  0  0
   -3.1945    0.0394   -0.7564 C   0  0  2  0  0  0  0  0  0  0  0  0
   -1.8440   -0.2921   -1.2917 O   0  0  0  0  0  0  0  0  0  0  0  0
   -3.1379    1.6017   -1.5236 C   0  0  1  0  0  0  0  0  0  0  0  0
   -3.7828    1.0483   -2.7709 O   0  0  0  0  0  0  0  0  0  0  0  0
   -4.6600    2.0331   -0.8435 C   0  0  2  0  0  0  0  0  0  0  0  0
   -4.5845    3.4208   -1.4088 O   0  0  0  0  0  0  0  0  0  0  0  0
  1  2  1  0
  3  2  1  1
  3  4  1  0
  4  5  1  0
  5  6  1  1
  6  7  1  0
  7  8  2  0
  8  9  1  0
  9 10  1  0
  9 11  2  0
 11 12  1  0
 12 13  1  0
 13 14  2  0
 14 15  1  0
 15 16  2  0
 16 17  1  0
 17 18  2  0
 18 19  1  0
 18 20  1  0
 20 21  2  0
 12 22  2  0
  5 23  1  0
 23 24  1  6
 23 25  1  0
 25 26  1  6
 25 27  1  0
 27 28  1  6
 27  3  1  0
 22  7  1  0
 21 15  1  0
M  END
>  <zinc_id>  (66) 
ZINC000004098633

>  <smiles>  (66) 
OC[C@H]1O[C@@H](Oc2cc(O)cc(/C=C/c3ccc(O)cc3)c2)[C@H](O)[C@@H](O)[C@@H]1O

$$$$

     RDKit          3D

 23 24  0  0  0  0  0  0  0  0999 V2000
    3.9628    2.9144   -0.8749 C   0  0  0  0  0  0  0  0  0  0  0  0
    4.8080    2.1860    0.1192 C   0  0  0  0  0  0  0  0  0  0  0  0
    5.0615    0.8490   -0.2364 O   0  0  0  0  0  0  0  0  0  0  0  0
    4.0095   -0.0308   -0.4017 C   0  0  0  0  0  0  0  0  0  0  0  0
    2.6920    0.4058   -0.2160 C   0  0  0  0  0  0  0  0  0  0  0  0
    1.6350   -0.4569   -0.3766 C   0  0  0  0  0  0  0  0  0  0  0  0
    1.7675   -1.7529   -0.7149 C   0  0  0  0  0  0  0  0  0  0  0  0
    0.7691   -2.7332   -0.9088 C   0  0  0  0  0  0  0  0  0  0  0  0
   -0.4552   -2.5767   -0.7997 C   0  0  0  0  0  0  0  0  0  0  0  0
   -1.1746   -1.3937   -0.4570 C   0  0  0  0  0  0  0  0  0  0  0  0
   -2.5806   -1.5508   -0.4179 C   0  0  0  0  0  0  0  0  0  0  0  0
   -3.4032   -0.5073   -0.1049 C   0  0  0  0  0  0  0  0  0  0  0  0
   -4.7899   -0.6593   -0.0656 O   0  0  0  0  0  0  0  0  0  0  0  0
   -5.3053   -1.9410   -0.3640 C   0  0  0  0  0  0  0  0  0  0  0  0
   -2.9537    0.7584    0.1931 C   0  0  0  0  0  0  0  0  0  0  0  0
   -3.7967    1.8081    0.5087 O   0  0  0  0  0  0  0  0  0  0  0  0
   -4.2824    2.6369   -0.5444 C   0  0  0  0  0  0  0  0  0  0  0  0
   -1.5685    0.9319    0.1593 C   0  0  0  0  0  0  0  0  0  0  0  0
   -1.1162    2.2043    0.4589 O   0  0  0  0  0  0  0  0  0  0  0  0
    0.2344    2.5787    0.4783 C   0  0  0  0  0  0  0  0  0  0  0  0
   -0.7655   -0.1384   -0.1594 C   0  0  0  0  0  0  0  0  0  0  0  0
    3.1031   -2.1917   -0.9022 C   0  0  0  0  0  0  0  0  0  0  0  0
    4.1487   -1.3410   -0.7440 C   0  0  0  0  0  0  0  0  0  0  0  0
  1  2  1  0
  2  3  1  0
  3  4  1  0
  4  5  2  0
  5  6  1  0
  6  7  2  0
  7  8  1  0
  8  9  2  0
  9 10  1  0
 10 11  2  0
 11 12  1  0
 12 13  1  0
 13 14  1  0
 12 15  2  0
 15 16  1  0
 16 17  1  0
 15 18  1  0
 18 19  1  0
 19 20  1  0
 18 21  2  0
  7 22  1  0
 22 23  2  0
 23  4  1  0
 21 10  1  0
M  END
>  <zinc_id>  (67) 
ZINC000013456746

>  <smiles>  (67) 
CCOc1ccc(/C=C\c2cc(OC)c(OC)c(OC)c2)cc1

$$$$

     RDKit          3D

 21 22  0  0  0  0  0  0  0  0999 V2000
   -6.0369   -0.1759    0.4800 C   0  0  0  0  0  0  0  0  0  0  0  0
   -4.9868   -1.1184    0.3802 O   0  0  0  0  0  0  0  0  0  0  0  0
   -3.6600   -0.7414    0.3272 C   0  0  0  0  0  0  0  0  0  0  0  0
   -2.7001   -1.6929    0.2317 C   0  0  0  0  0  0  0  0  0  0  0  0
   -1.3242   -1.3477    0.1747 C   0  0  0  0  0  0  0  0  0  0  0  0
   -0.4486   -2.4709    0.0756 C   0  0  0  0  0  0  0  0  0  0  0  0
    0.8027   -2.4795    0.0087 C   0  0  0  0  0  0  0  0  0  0  0  0
    1.6151   -1.2910    0.0210 C   0  0  0  0  0  0  0  0  0  0  0  0
    1.2685    0.0114    0.1003 C   0  0  0  0  0  0  0  0  0  0  0  0
    2.1328    1.0726    0.1040 C   0  0  0  0  0  0  0  0  0  0  0  0
    3.5013    0.8114    0.0189 C   0  0  0  0  0  0  0  0  0  0  0  0
    4.4511    1.8172    0.0154 O   0  0  0  0  0  0  0  0  0  0  0  0
    3.9794    3.1581    0.1031 C   0  0  0  0  0  0  0  0  0  0  0  0
    3.9198   -0.4891   -0.0642 C   0  0  0  0  0  0  0  0  0  0  0  0
    5.2970   -0.7679   -0.1505 O   0  0  0  0  0  0  0  0  0  0  0  0
    3.0066   -1.5050   -0.0631 C   0  0  0  0  0  0  0  0  0  0  0  0
   -1.1050   -0.0208    0.2250 C   0  0  0  0  0  0  0  0  0  0  0  0
   -2.0357    0.9735    0.3209 C   0  0  0  0  0  0  0  0  0  0  0  0
   -1.6877    2.3093    0.3647 O   0  0  0  0  0  0  0  0  0  0  0  0
   -2.6237    3.3428    0.4628 C   0  0  0  0  0  0  0  0  0  0  0  0
   -3.3656    0.6042    0.3744 C   0  0  0  0  0  0  0  0  0  0  0  0
  1  2  1  0
  2  3  1  0
  3  4  2  0
  4  5  1  0
  5  6  1  0
  6  7  2  0
  7  8  1  0
  8  9  2  0
  9 10  1  0
 10 11  2  0
 11 12  1  0
 12 13  1  0
 11 14  1  0
 14 15  1  0
 14 16  2  0
  5 17  2  0
 17 18  1  0
 18 19  1  0
 19 20  1  0
 18 21  2  0
 21  3  1  0
 16  8  1  0
M  END
>  <zinc_id>  (68) 
ZINC000004847334

>  <smiles>  (68) 
COc1cc(/C=C\c2ccc(OC)c(O)c2)cc(OC)c1

$$$$

     RDKit          3D

 26 27  0  0  0  0  0  0  0  0999 V2000
    0.7108   -4.4763   -3.3156 C   0  0  0  0  0  0  0  0  0  0  0  0
    1.9696   -3.9085   -3.0621 O   0  0  0  0  0  0  0  0  0  0  0  0
    2.1642   -2.7926   -2.2833 C   0  0  0  0  0  0  0  0  0  0  0  0
    1.0537   -2.1889   -1.7147 C   0  0  0  0  0  0  0  0  0  0  0  0
    1.1837   -1.0725   -0.9266 C   0  0  0  0  0  0  0  0  0  0  0  0
    0.0022   -0.4346   -0.3302 C   0  0  0  0  0  0  0  0  0  0  0  0
    0.0850    0.6280    0.4311 C   0  0  0  0  0  0  0  0  0  0  0  0
   -1.1281    1.2451    1.0154 C   0  0  0  0  0  0  0  0  0  0  0  0
   -2.3764    0.6811    0.7388 C   0  0  0  0  0  0  0  0  0  0  0  0
   -3.5133    1.2238    1.2576 C   0  0  0  0  0  0  0  0  0  0  0  0
   -4.8030    0.7116    1.0252 O   0  0  0  0  0  0  0  0  0  0  0  0
   -4.8535   -0.4363    0.1601 C   0  0  0  0  0  0  0  0  0  0  0  0
   -3.4703    2.3347    2.0614 C   0  0  0  0  0  0  0  0  0  0  0  0
   -4.6003    2.9083    2.6000 O   0  0  0  0  0  0  0  0  0  0  0  0
   -5.0936    2.5039    3.8696 C   0  0  0  0  0  0  0  0  0  0  0  0
   -2.2297    2.9262    2.3580 C   0  0  0  0  0  0  0  0  0  0  0  0
   -2.2207    4.0345    3.1641 O   0  0  0  0  0  0  0  0  0  0  0  0
   -1.0495    4.6714    3.5474 C   0  0  0  0  0  0  0  0  0  0  0  0
   -1.0944    2.3535    1.8195 C   0  0  0  0  0  0  0  0  0  0  0  0
    2.4510   -0.5591   -0.7098 C   0  0  0  0  0  0  0  0  0  0  0  0
    3.5691   -1.1643   -1.2805 C   0  0  0  0  0  0  0  0  0  0  0  0
    4.8428   -0.6645   -1.0742 O   0  0  0  0  0  0  0  0  0  0  0  0
    5.1216    0.4706   -0.2914 C   0  0  0  0  0  0  0  0  0  0  0  0
    3.4168   -2.2791   -2.0650 C   0  0  0  0  0  0  0  0  0  0  0  0
    4.5423   -2.8582   -2.6183 O   0  0  0  0  0  0  0  0  0  0  0  0
    5.3199   -3.8580   -2.0244 C   0  0  0  0  0  0  0  0  0  0  0  0
  1  2  1  0
  2  3  1  0
  3  4  2  0
  4  5  1  0
  5  6  1  0
  6  7  2  0
  7  8  1  0
  8  9  2  0
  9 10  1  0
 10 11  1  0
 11 12  1  0
 10 13  2  0
 13 14  1  0
 14 15  1  0
 13 16  1  0
 16 17  1  0
 17 18  1  0
 16 19  2  0
  5 20  2  0
 20 21  1  0
 21 22  1  0
 22 23  1  0
 21 24  2  0
 24 25  1  0
 25 26  1  0
 24  3  1  0
 19  8  1  0
M  END
>  <zinc_id>  (69) 
ZINC000026577097

>  <smiles>  (69) 
COc1cc(/C=C/c2cc(OC)c(OC)c(OC)c2)cc(OC)c1OC

$$$$

     RDKit          3D

 18 19  0  0  0  0  0  0  0  0999 V2000
    4.8235    2.4365   -1.1503 O   0  0  0  0  0  0  0  0  0  0  0  0
    4.0696    1.3258   -0.7963 C   0  0  0  0  0  0  0  0  0  0  0  0
    4.6476    0.0947   -0.5406 C   0  0  0  0  0  0  0  0  0  0  0  0
    3.8989   -1.0097   -0.1888 C   0  0  0  0  0  0  0  0  0  0  0  0
    4.5489   -2.2072    0.0515 O   0  0  0  0  0  0  0  0  0  0  0  0
    2.5320   -0.8475   -0.0978 C   0  0  0  0  0  0  0  0  0  0  0  0
    1.9421    0.3743   -0.3500 C   0  0  0  0  0  0  0  0  0  0  0  0
    0.5043    0.4920   -0.2410 C   0  0  0  0  0  0  0  0  0  0  0  0
   -0.2987   -0.4775    0.0819 C   0  0  0  0  0  0  0  0  0  0  0  0
   -1.7383   -0.2772    0.1701 C   0  0  0  0  0  0  0  0  0  0  0  0
   -2.2445    0.9753   -0.0980 C   0  0  0  0  0  0  0  0  0  0  0  0
   -3.6125    1.2508   -0.0358 C   0  0  0  0  0  0  0  0  0  0  0  0
   -4.4654    0.2370    0.3031 C   0  0  0  0  0  0  0  0  0  0  0  0
   -5.8225    0.5011    0.3672 O   0  0  0  0  0  0  0  0  0  0  0  0
   -3.9915   -1.0245    0.5766 C   0  0  0  0  0  0  0  0  0  0  0  0
   -4.8919   -2.0236    0.9164 O   0  0  0  0  0  0  0  0  0  0  0  0
   -2.6157   -1.2671    0.5053 C   0  0  0  0  0  0  0  0  0  0  0  0
    2.7141    1.4468   -0.6960 C   0  0  0  0  0  0  0  0  0  0  0  0
  1  2  1  0
  2  3  2  0
  3  4  1  0
  4  5  1  0
  4  6  2  0
  6  7  1  0
  7  8  1  0
  8  9  2  0
  9 10  1  0
 10 11  2  0
 11 12  1  0
 12 13  2  0
 13 14  1  0
 13 15  1  0
 15 16  1  0
 15 17  2  0
  7 18  2  0
 18  2  1  0
 17 10  1  0
M  END
>  <zinc_id>  (70) 
ZINC000000014036

>  <smiles>  (70) 
Oc1cc(O)cc(/C=C/c2ccc(O)c(O)c2)c1

$$$$

     RDKit          3D

 20 21  0  0  0  0  0  0  0  0999 V2000
    6.8613   -1.5699    0.5687 C   0  0  0  0  0  0  0  0  0  0  0  0
    6.2555   -0.3315    0.3259 O   0  0  0  0  0  0  0  0  0  0  0  0
    4.8643   -0.1959    0.2499 C   0  0  0  0  0  0  0  0  0  0  0  0
    4.3475    1.0533    0.0086 C   0  0  0  0  0  0  0  0  0  0  0  0
    2.9971    1.2110   -0.0698 C   0  0  0  0  0  0  0  0  0  0  0  0
    2.1203    0.1595    0.0844 C   0  0  0  0  0  0  0  0  0  0  0  0
    0.7015    0.4459   -0.0194 C   0  0  0  0  0  0  0  0  0  0  0  0
   -0.2544   -0.4326    0.1010 C   0  0  0  0  0  0  0  0  0  0  0  0
   -1.6827   -0.0846   -0.0141 C   0  0  0  0  0  0  0  0  0  0  0  0
   -2.5831   -1.1149    0.1354 C   0  0  0  0  0  0  0  0  0  0  0  0
   -3.9401   -0.9008    0.0467 C   0  0  0  0  0  0  0  0  0  0  0  0
   -4.8493   -1.9622    0.2013 O   0  0  0  0  0  0  0  0  0  0  0  0
   -4.3967   -3.2639    0.4495 C   0  0  0  0  0  0  0  0  0  0  0  0
   -4.4153    0.3692   -0.1968 C   0  0  0  0  0  0  0  0  0  0  0  0
   -3.4918    1.3799   -0.3419 C   0  0  0  0  0  0  0  0  0  0  0  0
   -3.9777    2.6542   -0.5865 O   0  0  0  0  0  0  0  0  0  0  0  0
   -3.0822    3.7481   -0.7475 C   0  0  0  0  0  0  0  0  0  0  0  0
   -2.1255    1.1778   -0.2550 C   0  0  0  0  0  0  0  0  0  0  0  0
    2.6354   -1.0928    0.3262 C   0  0  0  0  0  0  0  0  0  0  0  0
    4.0159   -1.2495    0.4056 C   0  0  0  0  0  0  0  0  0  0  0  0
  1  2  1  0
  2  3  1  0
  3  4  2  0
  4  5  1  0
  5  6  2  0
  6  7  1  0
  7  8  2  0
  8  9  1  0
  9 10  2  0
 10 11  1  0
 11 12  1  0
 12 13  1  0
 11 14  2  0
 14 15  1  0
 15 16  1  0
 16 17  1  0
 15 18  2  0
  6 19  1  0
 19 20  2  0
 20  3  1  0
 18  9  1  0
M  END
>  <zinc_id>  (71) 
ZINC000013456778

>  <smiles>  (71) 
COc1ccc(/C=C/c2cc(OC)cc(OC)c2)cc1

$$$$

     RDKit          3D

 23 24  0  0  0  0  0  0  0  0999 V2000
   -6.8418    1.7424   -0.4491 C   0  0  0  0  0  0  0  0  0  0  0  0
   -7.1581    0.6396    0.5375 C   0  0  0  0  0  0  0  0  0  0  0  0
   -6.4815   -0.5432    0.1867 O   0  0  0  0  0  0  0  0  0  0  0  0
   -5.0846   -0.6078    0.1100 C   0  0  0  0  0  0  0  0  0  0  0  0
   -4.2969    0.4908    0.3758 C   0  0  0  0  0  0  0  0  0  0  0  0
   -2.9400    0.3598    0.2826 C   0  0  0  0  0  0  0  0  0  0  0  0
   -2.2947   -0.8076   -0.0626 C   0  0  0  0  0  0  0  0  0  0  0  0
   -0.8198   -0.8816   -0.1452 C   0  0  0  0  0  0  0  0  0  0  0  0
   -0.0817    0.1782    0.1122 C   0  0  0  0  0  0  0  0  0  0  0  0
    1.3750    0.1826    0.0517 C   0  0  0  0  0  0  0  0  0  0  0  0
    2.0229    1.3639    0.3461 C   0  0  0  0  0  0  0  0  0  0  0  0
    3.4163    1.3653    0.2875 C   0  0  0  0  0  0  0  0  0  0  0  0
    4.1112    2.5242    0.5738 O   0  0  0  0  0  0  0  0  0  0  0  0
    3.4896    3.7370    0.9304 C   0  0  0  0  0  0  0  0  0  0  0  0
    4.1426    0.2441   -0.0486 C   0  0  0  0  0  0  0  0  0  0  0  0
    5.5420    0.2703   -0.1006 O   0  0  0  0  0  0  0  0  0  0  0  0
    6.1402    0.6181   -1.3571 C   0  0  0  0  0  0  0  0  0  0  0  0
    3.4904   -0.9232   -0.3389 C   0  0  0  0  0  0  0  0  0  0  0  0
    4.2080   -2.0608   -0.6790 O   0  0  0  0  0  0  0  0  0  0  0  0
    3.5095   -3.2577   -0.9755 C   0  0  0  0  0  0  0  0  0  0  0  0
    2.1092   -0.9405   -0.2852 C   0  0  0  0  0  0  0  0  0  0  0  0
   -3.0822   -1.8995   -0.3266 C   0  0  0  0  0  0  0  0  0  0  0  0
   -4.4758   -1.7945   -0.2390 C   0  0  0  0  0  0  0  0  0  0  0  0
  1  2  1  0
  2  3  1  0
  3  4  1  0
  4  5  2  0
  5  6  1  0
  6  7  2  0
  7  8  1  0
  8  9  2  0
  9 10  1  0
 10 11  2  0
 11 12  1  0
 12 13  1  0
 13 14  1  0
 12 15  2  0
 15 16  1  0
 16 17  1  0
 15 18  1  0
 18 19  1  0
 19 20  1  0
 18 21  2  0
  7 22  1  0
 22 23  2  0
 23  4  1  0
 21 10  1  0
M  END
>  <zinc_id>  (72) 
ZINC000001622337

>  <smiles>  (72) 
CCOc1ccc(/C=C/c2cc(OC)c(OC)c(OC)c2)cc1

$$$$

     RDKit          3D

 20 21  0  0  0  0  0  0  0  0999 V2000
    6.1231   -0.0264   -0.7200 C   0  0  0  0  0  0  0  0  0  0  0  0
    5.3624    0.5004    0.3664 O   0  0  0  0  0  0  0  0  0  0  0  0
    4.0003    0.2376    0.3865 C   0  0  0  0  0  0  0  0  0  0  0  0
    3.4331   -0.8621    0.9946 C   0  0  0  0  0  0  0  0  0  0  0  0
    4.3202   -1.7451    1.6200 O   0  0  0  0  0  0  0  0  0  0  0  0
    2.0766   -1.0978    0.9990 C   0  0  0  0  0  0  0  0  0  0  0  0
    1.2202   -0.2176    0.3785 C   0  0  0  0  0  0  0  0  0  0  0  0
   -0.2145   -0.4696    0.3846 C   0  0  0  0  0  0  0  0  0  0  0  0
   -1.0741    0.3307   -0.1879 C   0  0  0  0  0  0  0  0  0  0  0  0
   -2.5091    0.0918   -0.1897 C   0  0  0  0  0  0  0  0  0  0  0  0
   -3.0740   -1.0051    0.4169 C   0  0  0  0  0  0  0  0  0  0  0  0
   -4.4423   -1.1554    0.3683 C   0  0  0  0  0  0  0  0  0  0  0  0
   -5.0498   -2.2501    0.9693 O   0  0  0  0  0  0  0  0  0  0  0  0
   -5.2284   -0.2347   -0.2696 C   0  0  0  0  0  0  0  0  0  0  0  0
   -4.6858    0.8775   -0.8878 C   0  0  0  0  0  0  0  0  0  0  0  0
   -5.4800    1.7963   -1.5253 O   0  0  0  0  0  0  0  0  0  0  0  0
   -3.3197    1.0041   -0.8250 C   0  0  0  0  0  0  0  0  0  0  0  0
    1.7560    0.8850   -0.2347 C   0  0  0  0  0  0  0  0  0  0  0  0
    3.1170    1.1053   -0.2292 C   0  0  0  0  0  0  0  0  0  0  0  0
    3.6687    2.2351   -0.8572 O   0  0  0  0  0  0  0  0  0  0  0  0
  1  2  1  0
  2  3  1  0
  3  4  2  0
  4  5  1  0
  4  6  1  0
  6  7  2  0
  7  8  1  0
  8  9  2  0
  9 10  1  0
 10 11  2  0
 11 12  1  0
 12 13  1  0
 12 14  2  0
 14 15  1  0
 15 16  1  0
 15 17  2  0
  7 18  1  0
 18 19  2  0
 19 20  1  0
 19  3  1  0
 17 10  1  0
M  END
>  <zinc_id>  (73) 
ZINC000031166745

>  <smiles>  (73) 
COc1c(O)cc(/C=C/c2cc(O)cc(O)c2)cc1O

$$$$

     RDKit          3D

 18 19  0  0  0  0  0  0  0  0999 V2000
    6.5735    0.0826    0.6347 O   0  0  0  0  0  0  0  0  0  0  0  0
    5.1939    0.0823    0.4259 C   0  0  0  0  0  0  0  0  0  0  0  0
    4.2961   -0.1072    1.4563 C   0  0  0  0  0  0  0  0  0  0  0  0
    2.9337   -0.1048    1.2331 C   0  0  0  0  0  0  0  0  0  0  0  0
    2.4073    0.0865   -0.0261 C   0  0  0  0  0  0  0  0  0  0  0  0
    0.9766    0.0953   -0.2985 C   0  0  0  0  0  0  0  0  0  0  0  0
    0.0537   -0.0740    0.6033 C   0  0  0  0  0  0  0  0  0  0  0  0
   -1.3762   -0.0670    0.3417 C   0  0  0  0  0  0  0  0  0  0  0  0
   -2.2434   -0.2599    1.3976 C   0  0  0  0  0  0  0  0  0  0  0  0
   -3.6120   -0.2590    1.1833 C   0  0  0  0  0  0  0  0  0  0  0  0
   -4.4976   -0.4514    2.2336 O   0  0  0  0  0  0  0  0  0  0  0  0
   -4.1641   -0.0690   -0.0719 C   0  0  0  0  0  0  0  0  0  0  0  0
   -5.5358   -0.0666   -0.2965 O   0  0  0  0  0  0  0  0  0  0  0  0
   -3.2818    0.1220   -1.1144 C   0  0  0  0  0  0  0  0  0  0  0  0
   -3.7840    0.3163   -2.3879 O   0  0  0  0  0  0  0  0  0  0  0  0
   -1.9162    0.1242   -0.9192 C   0  0  0  0  0  0  0  0  0  0  0  0
    3.3063    0.2759   -1.0555 C   0  0  0  0  0  0  0  0  0  0  0  0
    4.6699    0.2738   -0.8343 C   0  0  0  0  0  0  0  0  0  0  0  0
  1  2  1  0
  2  3  2  0
  3  4  1  0
  4  5  2  0
  5  6  1  0
  6  7  2  0
  7  8  1  0
  8  9  2  0
  9 10  1  0
 10 11  1  0
 10 12  2  0
 12 13  1  0
 12 14  1  0
 14 15  1  0
 14 16  2  0
  5 17  1  0
 17 18  2  0
 18  2  1  0
 16  8  1  0
M  END
>  <zinc_id>  (74) 
ZINC000014505445

>  <smiles>  (74) 
Oc1ccc(/C=C/c2cc(O)c(O)c(O)c2)cc1

$$$$

     RDKit          3D

 28 30  0  0  0  0  0  0  0  0999 V2000
   -6.4737    1.6195    0.8341 O   0  0  0  0  0  0  0  0  0  0  0  0
   -6.0331    1.4898   -0.4632 C   0  0  0  0  0  0  0  0  0  0  0  0
   -4.5001    0.9166   -0.2202 C   0  0  2  0  0  0  0  0  0  0  0  0
   -4.2314    0.8552   -1.7022 O   0  0  0  0  0  0  0  0  0  0  0  0
   -2.7425    0.4637   -1.8048 C   0  0  1  0  0  0  0  0  0  0  0  0
   -2.2788    0.7452   -0.3746 O   0  0  0  0  0  0  0  0  0  0  0  0
   -0.9575    0.6238   -0.0679 C   0  0  0  0  0  0  0  0  0  0  0  0
   -0.5252    0.7973    1.2410 C   0  0  0  0  0  0  0  0  0  0  0  0
    0.8192    0.6676    1.4921 C   0  0  0  0  0  0  0  0  0  0  0  0
    1.3272    0.8268    2.7751 O   0  0  0  0  0  0  0  0  0  0  0  0
    1.6725    0.3755    0.4539 C   0  0  0  0  0  0  0  0  0  0  0  0
    1.3214    0.1934   -0.8444 C   0  0  0  0  0  0  0  0  0  0  0  0
    2.1029   -0.1097   -1.9984 C   0  0  0  0  0  0  0  0  0  0  0  0
    3.3363   -0.2685   -1.9952 C   0  0  0  0  0  0  0  0  0  0  0  0
    4.2381   -0.1931   -0.8998 C   0  0  0  0  0  0  0  0  0  0  0  0
    5.5790   -0.4382   -1.3075 C   0  0  0  0  0  0  0  0  0  0  0  0
    6.6168   -0.4160   -0.4149 C   0  0  0  0  0  0  0  0  0  0  0  0
    6.4539   -0.1593    0.9281 C   0  0  0  0  0  0  0  0  0  0  0  0
    7.5426   -0.1506    1.7810 O   0  0  0  0  0  0  0  0  0  0  0  0
    5.1512    0.0791    1.3259 C   0  0  0  0  0  0  0  0  0  0  0  0
    4.1240    0.0513    0.4095 C   0  0  0  0  0  0  0  0  0  0  0  0
   -0.0654    0.3339   -1.0649 C   0  0  0  0  0  0  0  0  0  0  0  0
   -3.1129   -1.2306   -1.6677 C   0  0  1  0  0  0  0  0  0  0  0  0
   -1.7089   -1.6534   -1.4998 O   0  0  0  0  0  0  0  0  0  0  0  0
   -3.4413   -1.2681    0.0036 C   0  0  2  0  0  0  0  0  0  0  0  0
   -3.8363   -2.7154   -0.0899 O   0  0  0  0  0  0  0  0  0  0  0  0
   -5.0643   -0.7375   -0.2193 C   0  0  1  0  0  0  0  0  0  0  0  0
   -5.3135   -0.6983    1.2589 O   0  0  0  0  0  0  0  0  0  0  0  0
  1  2  1  0
  3  2  1  6
  3  4  1  0
  4  5  1  0
  5  6  1  1
  6  7  1  0
  7  8  2  0
  8  9  1  0
  9 10  1  0
  9 11  2  0
 11 12  1  0
 12 13  1  0
 13 14  2  0
 14 15  1  0
 15 16  2  0
 16 17  1  0
 17 18  2  0
 18 19  1  0
 18 20  1  0
 20 21  2  0
 12 22  2  0
  5 23  1  0
 23 24  1  1
 23 25  1  0
 25 26  1  6
 25 27  1  0
 27 28  1  1
 27  3  1  0
 22  7  1  0
 21 15  1  0
M  END
>  <zinc_id>  (75) 
ZINC000253527835

>  <smiles>  (75) 
OC[C@@H]1O[C@@H](Oc2cc(O)cc(/C=C\c3ccc(O)cc3)c2)[C@@H](O)[C@H](O)[C@H]1O

$$$$

     RDKit          3D

 21 22  0  0  0  0  0  0  0  0999 V2000
   -4.2441    0.2595    1.2671 O   0  0  0  0  0  0  0  0  0  0  0  0
   -4.9803    0.7926    0.0776 S   0  0  0  0  0  0  0  0  0  0  0  0
   -5.7249    2.0372    0.4968 O   0  0  0  0  0  0  0  0  0  0  0  0
   -6.0741   -0.3511   -0.4643 O   0  0  0  0  0  0  0  0  0  0  0  0
   -3.8499    1.2078   -1.1238 O   0  0  0  0  0  0  0  0  0  0  0  0
   -2.6808    0.4698   -1.2584 C   0  0  0  0  0  0  0  0  0  0  0  0
   -2.6761   -0.6294   -2.1062 C   0  0  0  0  0  0  0  0  0  0  0  0
   -1.5200   -1.3701   -2.2476 C   0  0  0  0  0  0  0  0  0  0  0  0
   -1.4716   -2.4658   -3.0766 O   0  0  0  0  0  0  0  0  0  0  0  0
   -0.3754   -1.0126   -1.5445 C   0  0  0  0  0  0  0  0  0  0  0  0
   -0.3573    0.0771   -0.6955 C   0  0  0  0  0  0  0  0  0  0  0  0
    0.8596    0.4553    0.0505 C   0  0  0  0  0  0  0  0  0  0  0  0
    1.9785   -0.1995   -0.0384 C   0  0  0  0  0  0  0  0  0  0  0  0
    3.1722    0.1893    0.7071 C   0  0  0  0  0  0  0  0  0  0  0  0
    3.1994    1.2773    1.5582 C   0  0  0  0  0  0  0  0  0  0  0  0
    4.3381    1.6336    2.2582 C   0  0  0  0  0  0  0  0  0  0  0  0
    5.4721    0.8671    2.0886 C   0  0  0  0  0  0  0  0  0  0  0  0
    6.6200    1.2312    2.7980 O   0  0  0  0  0  0  0  0  0  0  0  0
    5.5017   -0.2365    1.2466 C   0  0  0  0  0  0  0  0  0  0  0  0
    4.3352   -0.5426    0.5751 C   0  0  0  0  0  0  0  0  0  0  0  0
   -1.5223    0.8036   -0.5684 C   0  0  0  0  0  0  0  0  0  0  0  0
  1  2  2  0
  2  3  2  0
  2  4  1  0
  2  5  1  0
  5  6  1  0
  6  7  2  0
  7  8  1  0
  8  9  1  0
  8 10  2  0
 10 11  1  0
 11 12  1  0
 12 13  2  0
 13 14  1  0
 14 15  2  0
 15 16  1  0
 16 17  2  0
 17 18  1  0
 17 19  1  0
 19 20  2  0
 11 21  2  0
 21  6  1  0
 20 14  1  0
M  END
>  <zinc_id>  (76) 
ZINC000035653092

>  <smiles>  (76) 
O=S(=O)(O)Oc1cc(O)cc(/C=C/c2ccc(O)cc2)c1

$$$$

     RDKit          3D

 18 19  0  0  0  0  0  0  0  0999 V2000
   -4.6711   -1.5383   -0.6397 O   0  0  0  0  0  0  0  0  0  0  0  0
   -3.8476   -0.4195   -0.4149 C   0  0  0  0  0  0  0  0  0  0  0  0
   -4.5048    0.7986   -0.2569 C   0  0  0  0  0  0  0  0  0  0  0  0
   -3.7692    1.9467   -0.0323 C   0  0  0  0  0  0  0  0  0  0  0  0
   -4.4546    3.1357    0.1194 O   0  0  0  0  0  0  0  0  0  0  0  0
   -2.4022    1.8258    0.0247 C   0  0  0  0  0  0  0  0  0  0  0  0
   -1.7469    0.6282   -0.1301 C   0  0  0  0  0  0  0  0  0  0  0  0
   -0.2928    0.6098   -0.0518 C   0  0  0  0  0  0  0  0  0  0  0  0
    0.4334   -0.4710   -0.1841 C   0  0  0  0  0  0  0  0  0  0  0  0
    1.8934   -0.4720   -0.1027 C   0  0  0  0  0  0  0  0  0  0  0  0
    2.5958    0.6930    0.1228 C   0  0  0  0  0  0  0  0  0  0  0  0
    3.9714    0.7334    0.2061 C   0  0  0  0  0  0  0  0  0  0  0  0
    4.6604   -0.4372    0.0574 C   0  0  0  0  0  0  0  0  0  0  0  0
    6.0536   -0.3995    0.1413 O   0  0  0  0  0  0  0  0  0  0  0  0
    4.0002   -1.6252   -0.1693 C   0  0  0  0  0  0  0  0  0  0  0  0
    2.6038   -1.6440   -0.2503 C   0  0  0  0  0  0  0  0  0  0  0  0
    1.9684   -2.8603   -0.4802 O   0  0  0  0  0  0  0  0  0  0  0  0
   -2.4912   -0.5042   -0.3527 C   0  0  0  0  0  0  0  0  0  0  0  0
  1  2  1  0
  2  3  2  0
  3  4  1  0
  4  5  1  0
  4  6  2  0
  6  7  1  0
  7  8  1  0
  8  9  2  0
  9 10  1  0
 10 11  2  0
 11 12  1  0
 12 13  2  0
 13 14  1  0
 13 15  1  0
 15 16  2  0
 16 17  1  0
  7 18  2  0
 18  2  1  0
 16 10  1  0
M  END
>  <zinc_id>  (77) 
ZINC000000899161

>  <smiles>  (77) 
Oc1cc(O)cc(/C=C/c2ccc(O)cc2O)c1

$$$$

     RDKit          3D

 20 21  0  0  0  0  0  0  0  0999 V2000
    5.7912   -2.2971    0.1526 C   0  0  0  0  0  0  0  0  0  0  0  0
    4.5328   -2.0354    0.7458 O   0  0  0  0  0  0  0  0  0  0  0  0
    3.5273   -1.3874    0.0437 C   0  0  0  0  0  0  0  0  0  0  0  0
    3.6664   -0.9560   -1.2550 C   0  0  0  0  0  0  0  0  0  0  0  0
    2.6878   -0.3178   -1.9583 C   0  0  0  0  0  0  0  0  0  0  0  0
    1.4249   -0.0518   -1.3722 C   0  0  0  0  0  0  0  0  0  0  0  0
    0.5401    0.6190   -2.2594 C   0  0  0  0  0  0  0  0  0  0  0  0
   -0.6054    0.9740   -2.0325 C   0  0  0  0  0  0  0  0  0  0  0  0
   -1.3738    0.8288   -0.8529 C   0  0  0  0  0  0  0  0  0  0  0  0
   -1.0164    0.2550    0.3175 C   0  0  0  0  0  0  0  0  0  0  0  0
   -1.8024    0.1360    1.4449 C   0  0  0  0  0  0  0  0  0  0  0  0
   -1.4188   -0.4529    2.6288 O   0  0  0  0  0  0  0  0  0  0  0  0
   -0.1824   -1.0155    2.8652 C   0  0  0  0  0  0  0  0  0  0  0  0
   -3.0968    0.6464    1.4078 C   0  0  0  0  0  0  0  0  0  0  0  0
   -3.4927    1.2331    0.2425 C   0  0  0  0  0  0  0  0  0  0  0  0
   -4.7983    1.7381    0.2315 O   0  0  0  0  0  0  0  0  0  0  0  0
   -5.3022    2.3616   -0.9215 C   0  0  0  0  0  0  0  0  0  0  0  0
   -2.6929    1.3367   -0.8576 C   0  0  0  0  0  0  0  0  0  0  0  0
    1.3123   -0.4843   -0.0976 C   0  0  0  0  0  0  0  0  0  0  0  0
    2.2992   -1.1305    0.6185 C   0  0  0  0  0  0  0  0  0  0  0  0
  1  2  1  0
  2  3  1  0
  3  4  2  0
  4  5  1  0
  5  6  2  0
  6  7  1  0
  7  8  2  0
  8  9  1  0
  9 10  2  0
 10 11  1  0
 11 12  1  0
 12 13  1  0
 11 14  2  0
 14 15  1  0
 15 16  1  0
 16 17  1  0
 15 18  2  0
  6 19  1  0
 19 20  2  0
 20  3  1  0
 18  9  1  0
M  END
>  <zinc_id>  (78) 
ZINC000000009252

>  <smiles>  (78) 
COc1ccc(/C=C\c2cc(OC)cc(OC)c2)cc1

$$$$

     RDKit          3D

 23 24  0  0  0  0  0  0  0  0999 V2000
   -7.4215    1.3273   -0.7145 C   0  0  0  0  0  0  0  0  0  0  0  0
   -6.6004    0.1993   -0.4747 O   0  0  0  0  0  0  0  0  0  0  0  0
   -5.2057    0.3259   -0.3892 C   0  0  0  0  0  0  0  0  0  0  0  0
   -4.5644    1.5374   -0.5316 C   0  0  0  0  0  0  0  0  0  0  0  0
   -3.1708    1.6268   -0.4404 C   0  0  0  0  0  0  0  0  0  0  0  0
   -2.4016    0.5061   -0.2057 C   0  0  0  0  0  0  0  0  0  0  0  0
   -0.9443    0.6149   -0.1126 C   0  0  0  0  0  0  0  0  0  0  0  0
   -0.1530   -0.3910    0.1057 C   0  0  0  0  0  0  0  0  0  0  0  0
    1.3142   -0.2666    0.1970 C   0  0  0  0  0  0  0  0  0  0  0  0
    2.0657   -1.3972    0.4319 C   0  0  0  0  0  0  0  0  0  0  0  0
    3.4380   -1.3546    0.5289 C   0  0  0  0  0  0  0  0  0  0  0  0
    4.1710   -2.5065    0.7659 O   0  0  0  0  0  0  0  0  0  0  0  0
    3.6101   -3.7745    0.9232 C   0  0  0  0  0  0  0  0  0  0  0  0
    4.0993   -0.1528    0.3896 C   0  0  0  0  0  0  0  0  0  0  0  0
    5.4939   -0.0721    0.4823 O   0  0  0  0  0  0  0  0  0  0  0  0
    6.2645   -0.2285   -0.7142 C   0  0  0  0  0  0  0  0  0  0  0  0
    3.3412    0.9844    0.1531 C   0  0  0  0  0  0  0  0  0  0  0  0
    4.0228    2.2057    0.0122 O   0  0  0  0  0  0  0  0  0  0  0  0
    3.3106    3.3985   -0.2296 C   0  0  0  0  0  0  0  0  0  0  0  0
    1.9698    0.9244    0.0589 C   0  0  0  0  0  0  0  0  0  0  0  0
   -3.0782   -0.6880   -0.0687 C   0  0  0  0  0  0  0  0  0  0  0  0
   -4.4476   -0.7973   -0.1549 C   0  0  0  0  0  0  0  0  0  0  0  0
   -5.1135   -2.0217   -0.0123 O   0  0  0  0  0  0  0  0  0  0  0  0
  1  2  1  0
  2  3  1  0
  3  4  2  0
  4  5  1  0
  5  6  2  0
  6  7  1  0
  7  8  2  0
  8  9  1  0
  9 10  2  0
 10 11  1  0
 11 12  1  0
 12 13  1  0
 11 14  2  0
 14 15  1  0
 15 16  1  0
 14 17  1  0
 17 18  1  0
 18 19  1  0
 17 20  2  0
  6 21  1  0
 21 22  2  0
 22 23  1  0
 22  3  1  0
 20  9  1  0
M  END
>  <zinc_id>  (79) 
ZINC000001611146

>  <smiles>  (79) 
COc1ccc(/C=C/c2cc(OC)c(OC)c(OC)c2)cc1O

$$$$

     RDKit          3D

 22 23  0  0  0  0  0  0  0  0999 V2000
   -7.5066   -0.8244   -0.1950 C   0  0  0  0  0  0  0  0  0  0  0  0
   -6.6101   -1.8409    0.2109 O   0  0  0  0  0  0  0  0  0  0  0  0
   -5.2462   -1.5788    0.2135 C   0  0  0  0  0  0  0  0  0  0  0  0
   -4.7662   -0.3449   -0.1737 C   0  0  0  0  0  0  0  0  0  0  0  0
   -3.4031   -0.0942   -0.1673 C   0  0  0  0  0  0  0  0  0  0  0  0
   -2.4724   -1.0371    0.2159 C   0  0  0  0  0  0  0  0  0  0  0  0
   -1.0343   -0.7893    0.2284 C   0  0  0  0  0  0  0  0  0  0  0  0
   -0.4619    0.3164   -0.1091 C   0  0  0  0  0  0  0  0  0  0  0  0
    0.9764    0.5563   -0.0939 C   0  0  0  0  0  0  0  0  0  0  0  0
    1.8379   -0.4423    0.3035 C   0  0  0  0  0  0  0  0  0  0  0  0
    3.2072   -0.2745    0.3385 C   0  0  0  0  0  0  0  0  0  0  0  0
    4.0660   -1.2794    0.7380 O   0  0  0  0  0  0  0  0  0  0  0  0
    3.4937   -2.5159    1.1199 C   0  0  0  0  0  0  0  0  0  0  0  0
    3.7494    0.9566   -0.0436 C   0  0  0  0  0  0  0  0  0  0  0  0
    5.1144    1.1542   -0.0190 O   0  0  0  0  0  0  0  0  0  0  0  0
    5.7217    1.6472    1.1518 C   0  0  0  0  0  0  0  0  0  0  0  0
    2.9185    1.9647   -0.4423 C   0  0  0  0  0  0  0  0  0  0  0  0
    3.4548    3.1841   -0.8208 O   0  0  0  0  0  0  0  0  0  0  0  0
    2.6947    4.2792   -1.2443 C   0  0  0  0  0  0  0  0  0  0  0  0
    1.5447    1.7550   -0.4633 C   0  0  0  0  0  0  0  0  0  0  0  0
   -2.9602   -2.2679    0.6016 C   0  0  0  0  0  0  0  0  0  0  0  0
   -4.3183   -2.5240    0.5973 C   0  0  0  0  0  0  0  0  0  0  0  0
  1  2  1  0
  2  3  1  0
  3  4  2  0
  4  5  1  0
  5  6  2  0
  6  7  1  0
  7  8  2  0
  8  9  1  0
  9 10  2  0
 10 11  1  0
 11 12  1  0
 12 13  1  0
 11 14  2  0
 14 15  1  0
 15 16  1  0
 14 17  1  0
 17 18  1  0
 18 19  1  0
 17 20  2  0
  6 21  1  0
 21 22  2  0
 22  3  1  0
 20  9  1  0
M  END
>  <zinc_id>  (80) 
ZINC000013823937

>  <smiles>  (80) 
COc1ccc(/C=C/c2cc(OC)c(OC)c(OC)c2)cc1

$$$$

     RDKit          3D

 25 26  0  0  0  0  0  0  0  0999 V2000
   -7.6260   -0.0385    0.5581 C   0  0  0  0  0  0  0  0  0  0  0  0
   -6.7487    0.5685   -0.3542 O   0  0  0  0  0  0  0  0  0  0  0  0
   -5.3741    0.3814   -0.2116 C   0  0  0  0  0  0  0  0  0  0  0  0
   -4.8302   -0.3809    0.7962 C   0  0  0  0  0  0  0  0  0  0  0  0
   -3.4757   -0.5565    0.9240 C   0  0  0  0  0  0  0  0  0  0  0  0
   -2.5815    0.0196    0.0519 C   0  0  0  0  0  0  0  0  0  0  0  0
   -1.1355   -0.1608    0.1794 C   0  0  0  0  0  0  0  0  0  0  0  0
   -0.2755    0.3834   -0.6469 C   0  0  0  0  0  0  0  0  0  0  0  0
    1.1678    0.2228   -0.5463 C   0  0  0  0  0  0  0  0  0  0  0  0
    1.9864    1.2846   -0.8657 C   0  0  0  0  0  0  0  0  0  0  0  0
    3.3596    1.2470   -0.8084 C   0  0  0  0  0  0  0  0  0  0  0  0
    4.1402    2.3643   -1.1471 O   0  0  0  0  0  0  0  0  0  0  0  0
    3.4646    3.5405   -1.5528 C   0  0  0  0  0  0  0  0  0  0  0  0
    3.9551    0.0649   -0.4034 C   0  0  0  0  0  0  0  0  0  0  0  0
    5.3386    0.0335   -0.3478 O   0  0  0  0  0  0  0  0  0  0  0  0
    6.0026    0.3981    0.8474 C   0  0  0  0  0  0  0  0  0  0  0  0
    3.1617   -1.0210   -0.0753 C   0  0  0  0  0  0  0  0  0  0  0  0
    3.7774   -2.1928    0.3272 O   0  0  0  0  0  0  0  0  0  0  0  0
    3.0531   -3.3515    0.6809 C   0  0  0  0  0  0  0  0  0  0  0  0
    1.7854   -0.9436   -0.1457 C   0  0  0  0  0  0  0  0  0  0  0  0
   -0.6680   -0.9649    1.2521 N   0  0  0  0  0  4  0  0  0  0  0  0
   -0.3967   -2.1733    1.0216 O   0  0  0  0  0  0  0  0  0  0  0  0
   -0.4957   -0.4860    2.5373 O   0  0  0  0  0  1  0  0  0  0  0  0
   -3.1106    0.7956   -0.9758 C   0  0  0  0  0  0  0  0  0  0  0  0
   -4.4742    0.9655   -1.0952 C   0  0  0  0  0  0  0  0  0  0  0  0
  1  2  1  0
  2  3  1  0
  3  4  2  0
  4  5  1  0
  5  6  2  0
  6  7  1  0
  7  8  2  0
  8  9  1  0
  9 10  2  0
 10 11  1  0
 11 12  1  0
 12 13  1  0
 11 14  2  0
 14 15  1  0
 15 16  1  0
 14 17  1  0
 17 18  1  0
 18 19  1  0
 17 20  2  0
  7 21  1  0
 21 22  2  0
 21 23  1  0
  6 24  1  0
 24 25  2  0
 25  3  1  0
 20  9  1  0
M  CHG  2  21   1  23  -1
M  END
>  <zinc_id>  (81) 
ZINC000001669556

>  <smiles>  (81) 
COc1ccc(/C(=C/c2cc(OC)c(OC)c(OC)c2)[N+](=O)[O-])cc1

$$$$

     RDKit          3D

 28 30  0  0  0  0  0  0  0  0999 V2000
    5.6130   -0.5805   -0.3351 O   0  0  0  0  0  0  0  0  0  0  0  0
    4.8473   -0.8119   -1.3106 C   0  0  0  0  0  0  0  0  0  0  0  0
    3.5690    0.1237   -1.5837 C   0  0  1  0  0  0  0  0  0  0  0  0
    2.9832   -0.1782   -0.1732 O   0  0  0  0  0  0  0  0  0  0  0  0
    2.0161    1.0314   -0.2460 C   0  0  1  0  0  0  0  0  0  0  0  0
    0.9867    0.5116    0.6951 O   0  0  0  0  0  0  0  0  0  0  0  0
    0.1152   -0.4935    0.3856 C   0  0  0  0  0  0  0  0  0  0  0  0
    0.5360   -1.2377   -0.7566 C   0  0  0  0  0  0  0  0  0  0  0  0
   -0.2510   -2.3075   -1.1208 C   0  0  0  0  0  0  0  0  0  0  0  0
    0.1492   -3.0489   -2.2333 O   0  0  0  0  0  0  0  0  0  0  0  0
   -1.3825   -2.5919   -0.3928 C   0  0  0  0  0  0  0  0  0  0  0  0
   -1.8490   -1.9302    0.6843 C   0  0  0  0  0  0  0  0  0  0  0  0
   -2.9281   -2.3176    1.5762 C   0  0  0  0  0  0  0  0  0  0  0  0
   -3.9575   -1.6483    1.7273 C   0  0  0  0  0  0  0  0  0  0  0  0
   -4.2950   -0.4378    1.1003 C   0  0  0  0  0  0  0  0  0  0  0  0
   -5.4377    0.2266    1.4989 C   0  0  0  0  0  0  0  0  0  0  0  0
   -5.9704    1.2828    0.8488 C   0  0  0  0  0  0  0  0  0  0  0  0
   -5.3323    1.7535   -0.3180 C   0  0  0  0  0  0  0  0  0  0  0  0
   -5.7973    2.7971   -1.0420 O   0  0  0  0  0  0  0  0  0  0  0  0
   -4.1532    1.1040   -0.7538 C   0  0  0  0  0  0  0  0  0  0  0  0
   -3.6683    0.0367   -0.0496 C   0  0  0  0  0  0  0  0  0  0  0  0
   -1.0199   -0.8288    1.0491 C   0  0  0  0  0  0  0  0  0  0  0  0
    2.9807    1.8261    1.0365 C   0  0  1  0  0  0  0  0  0  0  0  0
    2.9042    0.7005    2.0271 O   0  0  0  0  0  0  0  0  0  0  0  0
    4.5100    1.2790    0.4691 C   0  0  2  0  0  0  0  0  0  0  0  0
    5.1798    2.5548    0.7300 O   0  0  0  0  0  0  0  0  0  0  0  0
    4.1437    1.6628   -1.1291 C   0  0  1  0  0  0  0  0  0  0  0  0
    5.5082    1.5222   -1.6833 O   0  0  0  0  0  0  0  0  0  0  0  0
  1  2  1  0
  3  2  1  1
  3  4  1  0
  4  5  1  0
  5  6  1  1
  6  7  1  0
  7  8  2  0
  8  9  1  0
  9 10  1  0
  9 11  2  0
 11 12  1  0
 12 13  1  0
 13 14  2  0
 14 15  1  0
 15 16  2  0
 16 17  1  0
 17 18  2  0
 18 19  1  0
 18 20  1  0
 20 21  2  0
 12 22  2  0
  5 23  1  0
 23 24  1  1
 23 25  1  0
 25 26  1  1
 25 27  1  0
 27 28  1  6
 27  3  1  0
 22  7  1  0
 21 15  1  0
M  END
>  <zinc_id>  (82) 
ZINC000169302856

>  <smiles>  (82) 
OC[C@H]1O[C@@H](Oc2cc(O)cc(/C=C\c3ccc(O)cc3)c2)[C@@H](O)[C@H](O)[C@H]1O

$$$$

     RDKit          3D

 27 28  0  0  0  0  0  0  0  0999 V2000
    5.4974   -2.1003    1.7177 C   0  0  0  0  0  0  0  0  0  0  0  0
    4.5064   -1.2614    1.1808 O   0  0  0  0  0  0  0  0  0  0  0  0
    3.2881   -1.6948    0.7335 C   0  0  0  0  0  0  0  0  0  0  0  0
    2.9586   -3.0291    0.7892 C   0  0  0  0  0  0  0  0  0  0  0  0
    1.7492   -3.4545    0.3446 C   0  0  0  0  0  0  0  0  0  0  0  0
    0.7773   -2.5909   -0.1865 C   0  0  0  0  0  0  0  0  0  0  0  0
   -0.3940   -3.1214   -0.7584 C   0  0  0  0  0  0  0  0  0  0  0  0
   -1.4758   -2.5413   -0.9731 C   0  0  0  0  0  0  0  0  0  0  0  0
   -1.7841   -1.1798   -0.6588 C   0  0  0  0  0  0  0  0  0  0  0  0
   -2.9090   -0.6942   -1.3531 C   0  0  0  0  0  0  0  0  0  0  0  0
   -3.4328    0.5455   -1.1078 C   0  0  0  0  0  0  0  0  0  0  0  0
   -4.5450    0.9631   -1.8320 O   0  0  0  0  0  0  0  0  0  0  0  0
   -5.1732    0.1926   -2.8069 C   0  0  0  0  0  0  0  0  0  0  0  0
   -2.8434    1.3422   -0.1520 C   0  0  0  0  0  0  0  0  0  0  0  0
   -3.3856    2.5916    0.0832 O   0  0  0  0  0  0  0  0  0  0  0  0
   -4.3928    2.8284    1.0324 C   0  0  0  0  0  0  0  0  0  0  0  0
   -1.7234    0.8850    0.5562 C   0  0  0  0  0  0  0  0  0  0  0  0
   -1.2100    1.7566    1.5030 O   0  0  0  0  0  0  0  0  0  0  0  0
   -0.1037    1.3712    2.2859 C   0  0  0  0  0  0  0  0  0  0  0  0
   -1.2335   -0.3625    0.2735 C   0  0  0  0  0  0  0  0  0  0  0  0
    1.1519   -1.2794   -0.2190 C   0  0  0  0  0  0  0  0  0  0  0  0
    2.3741   -0.7984    0.2204 C   0  0  0  0  0  0  0  0  0  0  0  0
    2.7312    0.5357    0.1652 O   0  0  0  0  0  0  0  0  0  0  0  0
    1.8243    1.4631   -0.3855 C   0  0  0  0  0  0  0  0  0  0  0  0
    2.3957    2.8395   -0.3524 C   0  0  0  0  0  0  0  0  0  0  0  0
    1.6967    3.7650   -0.8106 O   0  0  0  0  0  0  0  0  0  0  0  0
    3.6554    3.0286    0.1760 O   0  0  0  0  0  0  0  0  0  0  0  0
  1  2  1  0
  2  3  1  0
  3  4  2  0
  4  5  1  0
  5  6  2  0
  6  7  1  0
  7  8  2  0
  8  9  1  0
  9 10  2  0
 10 11  1  0
 11 12  1  0
 12 13  1  0
 11 14  2  0
 14 15  1  0
 15 16  1  0
 14 17  1  0
 17 18  1  0
 18 19  1  0
 17 20  2  0
  6 21  1  0
 21 22  2  0
 22 23  1  0
 23 24  1  0
 24 25  1  0
 25 26  2  0
 25 27  1  0
 22  3  1  0
 20  9  1  0
M  END
>  <zinc_id>  (83) 
ZINC000031841007

>  <smiles>  (83) 
COc1ccc(/C=C\c2cc(OC)c(OC)c(OC)c2)cc1OCC(=O)O

$$$$

     RDKit          3D

 24 25  0  0  0  0  0  0  0  0999 V2000
    3.3797    0.3107    4.3977 C   0  0  0  0  0  0  0  0  0  0  0  0
    4.0943   -0.0427    3.2249 O   0  0  0  0  0  0  0  0  0  0  0  0
    3.4308   -0.1895    2.0119 C   0  0  0  0  0  0  0  0  0  0  0  0
    4.1215   -0.5306    0.8782 C   0  0  0  0  0  0  0  0  0  0  0  0
    3.4943   -0.6835   -0.3382 C   0  0  0  0  0  0  0  0  0  0  0  0
    2.1097   -0.4977   -0.4825 C   0  0  0  0  0  0  0  0  0  0  0  0
    1.5511   -0.7023   -1.7853 C   0  0  0  0  0  0  0  0  0  0  0  0
    2.4064   -1.1445   -2.8956 C   0  0  0  0  0  0  0  0  0  0  0  0
    3.0912   -1.4809   -3.7577 N   0  0  0  0  0  0  0  0  0  0  0  0
    0.3180   -0.5226   -2.0656 C   0  0  0  0  0  0  0  0  0  0  0  0
   -0.7191   -0.0955   -1.1868 C   0  0  0  0  0  0  0  0  0  0  0  0
   -1.9055   -0.8630   -1.2484 C   0  0  0  0  0  0  0  0  0  0  0  0
   -3.0132   -0.5549   -0.4963 C   0  0  0  0  0  0  0  0  0  0  0  0
   -4.1865   -1.3015   -0.5477 O   0  0  0  0  0  0  0  0  0  0  0  0
   -4.3509   -2.4334   -1.3671 C   0  0  0  0  0  0  0  0  0  0  0  0
   -3.0117    0.5292    0.3596 C   0  0  0  0  0  0  0  0  0  0  0  0
   -4.1385    0.8469    1.1282 O   0  0  0  0  0  0  0  0  0  0  0  0
   -5.0821    1.7392    0.5307 C   0  0  0  0  0  0  0  0  0  0  0  0
   -1.8587    1.2807    0.4240 C   0  0  0  0  0  0  0  0  0  0  0  0
   -1.8245    2.3585    1.2598 O   0  0  0  0  0  0  0  0  0  0  0  0
   -0.6700    3.1837    1.3806 C   0  0  0  0  0  0  0  0  0  0  0  0
   -0.7612    0.9562   -0.3363 C   0  0  0  0  0  0  0  0  0  0  0  0
    1.4596   -0.1606    0.6621 C   0  0  0  0  0  0  0  0  0  0  0  0
    2.0654   -0.0019    1.8906 C   0  0  0  0  0  0  0  0  0  0  0  0
  1  2  1  0
  2  3  1  0
  3  4  2  0
  4  5  1  0
  5  6  2  0
  6  7  1  0
  7  8  1  0
  8  9  3  0
  7 10  2  0
 10 11  1  0
 11 12  2  0
 12 13  1  0
 13 14  1  0
 14 15  1  0
 13 16  2  0
 16 17  1  0
 17 18  1  0
 16 19  1  0
 19 20  1  0
 20 21  1  0
 19 22  2  0
  6 23  1  0
 23 24  2  0
 24  3  1  0
 22 11  1  0
M  END
>  <zinc_id>  (84) 
ZINC000005706366

>  <smiles>  (84) 
COc1ccc(/C(C#N)=C\c2cc(OC)c(OC)c(OC)c2)cc1

$$$$

     RDKit          3D

 18 19  0  0  0  0  0  0  0  0999 V2000
   -4.8993    1.0412    0.5994 O   0  0  0  0  0  0  0  0  0  0  0  0
   -3.6048    0.6478    0.2898 C   0  0  0  0  0  0  0  0  0  0  0  0
   -3.3309   -0.6927    0.4895 C   0  0  0  0  0  0  0  0  0  0  0  0
   -2.0432   -1.1540    0.1967 C   0  0  0  0  0  0  0  0  0  0  0  0
   -1.7672   -2.4994    0.3968 O   0  0  0  0  0  0  0  0  0  0  0  0
   -1.1150   -0.2501   -0.2751 C   0  0  0  0  0  0  0  0  0  0  0  0
   -1.3469    1.0840   -0.4862 C   0  0  0  0  0  0  0  0  0  0  0  0
   -0.3689    2.0021   -0.9584 C   0  0  0  0  0  0  0  0  0  0  0  0
    0.8752    1.8410   -0.9946 C   0  0  0  0  0  0  0  0  0  0  0  0
    1.6241    0.7326   -0.5591 C   0  0  0  0  0  0  0  0  0  0  0  0
    2.5990    0.2205   -1.4326 C   0  0  0  0  0  0  0  0  0  0  0  0
    3.4805   -0.7735   -1.0978 C   0  0  0  0  0  0  0  0  0  0  0  0
    3.4222   -1.3131    0.1626 C   0  0  0  0  0  0  0  0  0  0  0  0
    4.3329   -2.3213    0.4614 O   0  0  0  0  0  0  0  0  0  0  0  0
    2.4910   -0.8507    1.0611 C   0  0  0  0  0  0  0  0  0  0  0  0
    1.6012    0.1745    0.6840 C   0  0  0  0  0  0  0  0  0  0  0  0
    0.7033    0.6086    1.6414 O   0  0  0  0  0  0  0  0  0  0  0  0
   -2.6530    1.5025   -0.1790 C   0  0  0  0  0  0  0  0  0  0  0  0
  1  2  1  0
  2  3  2  0
  3  4  1  0
  4  5  1  0
  4  6  2  0
  6  7  1  0
  7  8  1  0
  8  9  2  0
  9 10  1  0
 10 11  2  0
 11 12  1  0
 12 13  2  0
 13 14  1  0
 13 15  1  0
 15 16  2  0
 16 17  1  0
  7 18  2  0
 18  2  1  0
 16 10  1  0
M  END
>  <zinc_id>  (85) 
ZINC000005641949

>  <smiles>  (85) 
Oc1cc(O)cc(/C=C\c2ccc(O)cc2O)c1

$$$$

     RDKit          3D

 24 25  0  0  0  0  0  0  0  0999 V2000
    5.4637   -1.3619    2.4543 C   0  0  0  0  0  0  0  0  0  0  0  0
    4.5819   -1.5210    1.3627 O   0  0  0  0  0  0  0  0  0  0  0  0
    3.6940   -0.5203    0.9841 C   0  0  0  0  0  0  0  0  0  0  0  0
    3.6180    0.6848    1.6467 C   0  0  0  0  0  0  0  0  0  0  0  0
    2.7356    1.6467    1.2540 C   0  0  0  0  0  0  0  0  0  0  0  0
    1.8486    1.5071    0.1728 C   0  0  0  0  0  0  0  0  0  0  0  0
    1.0545    2.5963   -0.2774 C   0  0  0  0  0  0  0  0  0  0  0  0
   -0.1779    2.5791   -0.5202 C   0  0  0  0  0  0  0  0  0  0  0  0
   -1.0692    1.4765   -0.3778 C   0  0  0  0  0  0  0  0  0  0  0  0
   -0.8790    0.2870    0.2786 C   0  0  0  0  0  0  0  0  0  0  0  0
   -1.8041   -0.7311    0.3474 C   0  0  0  0  0  0  0  0  0  0  0  0
   -1.5522   -1.9140    1.0287 O   0  0  0  0  0  0  0  0  0  0  0  0
   -0.3493   -2.1800    1.7015 C   0  0  0  0  0  0  0  0  0  0  0  0
   -3.0300   -0.6003   -0.2711 C   0  0  0  0  0  0  0  0  0  0  0  0
   -3.9614   -1.6254   -0.2019 O   0  0  0  0  0  0  0  0  0  0  0  0
   -4.0578   -2.6690   -1.1209 C   0  0  0  0  0  0  0  0  0  0  0  0
   -3.2580    0.5814   -0.9409 C   0  0  0  0  0  0  0  0  0  0  0  0
   -4.5017    0.6907   -1.5576 O   0  0  0  0  0  0  0  0  0  0  0  0
   -4.8977    1.8389   -2.2879 C   0  0  0  0  0  0  0  0  0  0  0  0
   -2.3245    1.5904   -1.0013 C   0  0  0  0  0  0  0  0  0  0  0  0
    1.9382    0.3011   -0.4827 C   0  0  0  0  0  0  0  0  0  0  0  0
    1.1667   -0.0435   -1.5996 O   0  0  0  0  0  0  0  0  0  0  0  0
    2.8435   -0.6935   -0.0809 C   0  0  0  0  0  0  0  0  0  0  0  0
    2.9181   -1.9200   -0.7585 O   0  0  0  0  0  0  0  0  0  0  0  0
  1  2  1  0
  2  3  1  0
  3  4  2  0
  4  5  1  0
  5  6  2  0
  6  7  1  0
  7  8  2  0
  8  9  1  0
  9 10  2  0
 10 11  1  0
 11 12  1  0
 12 13  1  0
 11 14  2  0
 14 15  1  0
 15 16  1  0
 14 17  1  0
 17 18  1  0
 18 19  1  0
 17 20  2  0
  6 21  1  0
 21 22  1  0
 21 23  2  0
 23 24  1  0
 23  3  1  0
 20  9  1  0
M  END
>  <zinc_id>  (86) 
ZINC000000024632

>  <smiles>  (86) 
COc1ccc(/C=C\c2cc(OC)c(OC)c(OC)c2)c(O)c1O

$$$$

     RDKit          3D

 27 29  0  0  0  0  0  0  0  0999 V2000
   -6.7803   -1.8376    1.2089 C   0  0  0  0  0  0  0  0  0  0  0  0
   -6.2682   -1.1498    0.0875 O   0  0  0  0  0  0  0  0  0  0  0  0
   -4.8910   -0.9015    0.0678 C   0  0  0  0  0  0  0  0  0  0  0  0
   -4.0738   -1.3033    1.0861 C   0  0  0  0  0  0  0  0  0  0  0  0
   -2.7310   -1.0216    0.9901 C   0  0  0  0  0  0  0  0  0  0  0  0
   -2.1636   -0.3591   -0.0706 C   0  0  0  0  0  0  0  0  0  0  0  0
   -2.9930    0.0441   -1.0948 C   0  0  0  0  0  0  0  0  0  0  0  0
   -4.3681   -0.2314   -1.0208 C   0  0  0  0  0  0  0  0  0  0  0  0
   -5.2086    0.1752   -2.0555 O   0  0  0  0  0  0  0  0  0  0  0  0
   -4.7155    0.8569   -3.1776 C   0  0  0  0  0  0  0  0  0  0  0  0
   -0.7062   -0.2115    0.1228 C   0  0  0  0  0  0  0  0  0  0  0  0
    0.1631    0.3411   -0.6703 C   0  0  0  0  0  0  0  0  0  0  0  0
    1.5840    0.4627   -0.4320 C   0  0  0  0  0  0  0  0  0  0  0  0
    2.1579    0.8550    0.7510 C   0  0  0  0  0  0  0  0  0  0  0  0
    3.5076    0.9673    0.9821 C   0  0  0  0  0  0  0  0  0  0  0  0
    4.0001    1.3695    2.2030 O   0  0  0  0  0  0  0  0  0  0  0  0
    3.0781    1.6703    3.2339 C   0  0  0  0  0  0  0  0  0  0  0  0
    4.3600    0.6647   -0.0488 C   0  0  0  0  0  0  0  0  0  0  0  0
    5.7143    0.7681    0.1532 O   0  0  0  0  0  0  0  0  0  0  0  0
    6.3775    2.0061   -0.1224 C   0  0  0  0  0  0  0  0  0  0  0  0
    3.8654    0.2630   -1.2702 C   0  0  0  0  0  0  0  0  0  0  0  0
    4.7756   -0.0299   -2.2781 O   0  0  0  0  0  0  0  0  0  0  0  0
    4.2600   -0.4426   -3.5275 C   0  0  0  0  0  0  0  0  0  0  0  0
    2.4870    0.1610   -1.4654 C   0  0  0  0  0  0  0  0  0  0  0  0
   -0.4285   -0.8438    1.4001 C   0  0  0  0  0  0  0  0  0  0  0  0
    0.6823   -0.9493    1.9546 O   0  0  0  0  0  0  0  0  0  0  0  0
   -1.6851   -1.3237    1.8960 N   0  0  0  0  0  0  0  0  0  0  0  0
  1  2  1  0
  2  3  1  0
  3  4  2  0
  4  5  1  0
  5  6  2  0
  6  7  1  0
  7  8  2  0
  8  9  1  0
  9 10  1  0
  6 11  1  0
 11 12  2  0
 12 13  1  0
 13 14  2  0
 14 15  1  0
 15 16  1  0
 16 17  1  0
 15 18  2  0
 18 19  1  0
 19 20  1  0
 18 21  1  0
 21 22  1  0
 22 23  1  0
 21 24  2  0
 11 25  1  0
 25 26  2  0
 25 27  1  0
  8  3  1  0
 24 13  1  0
 27  5  1  0
M  END
>  <zinc_id>  (87) 
ZINC000002150677

>  <smiles>  (87) 
COc1cc2c(cc1OC)/C(=C/c1cc(OC)c(OC)c(OC)c1)C(=O)N2

$$$$

     RDKit          3D

 18 19  0  0  0  0  0  0  0  0999 V2000
    6.2753    0.7408    1.6746 C   0  0  0  0  0  0  0  0  0  0  0  0
    5.7202    1.0812    0.4192 O   0  0  0  0  0  0  0  0  0  0  0  0
    4.3671    0.8580    0.2110 C   0  0  0  0  0  0  0  0  0  0  0  0
    3.8096    1.1863   -1.0132 C   0  0  0  0  0  0  0  0  0  0  0  0
    2.4668    0.9808   -1.2633 C   0  0  0  0  0  0  0  0  0  0  0  0
    1.6363    0.4472   -0.3166 C   0  0  0  0  0  0  0  0  0  0  0  0
    0.2253    0.2523   -0.6362 C   0  0  0  0  0  0  0  0  0  0  0  0
   -0.6087   -0.2598    0.2500 C   0  0  0  0  0  0  0  0  0  0  0  0
   -2.0235   -0.4739   -0.0197 C   0  0  0  0  0  0  0  0  0  0  0  0
   -2.5179   -0.1265   -1.2576 C   0  0  0  0  0  0  0  0  0  0  0  0
   -3.8367   -0.3078   -1.5585 C   0  0  0  0  0  0  0  0  0  0  0  0
   -4.4276    0.0043   -2.7587 O   0  0  0  0  0  0  0  0  0  0  0  0
   -4.6584   -0.8533   -0.5746 C   0  0  0  0  0  0  0  0  0  0  0  0
   -4.1963   -1.2098    0.6684 C   0  0  0  0  0  0  0  0  0  0  0  0
   -5.0833   -1.7455    1.5868 O   0  0  0  0  0  0  0  0  0  0  0  0
   -2.8464   -1.0104    0.9392 C   0  0  0  0  0  0  0  0  0  0  0  0
    2.1718    0.1135    0.9091 C   0  0  0  0  0  0  0  0  0  0  0  0
    3.5263    0.3228    1.1557 C   0  0  0  0  0  0  0  0  0  0  0  0
  1  2  1  0
  2  3  1  0
  3  4  2  0
  4  5  1  0
  5  6  2  0
  6  7  1  0
  7  8  2  0
  8  9  1  0
  9 10  2  0
 10 11  1  0
 11 12  1  0
 11 13  2  0
 13 14  1  0
 14 15  1  0
 14 16  2  0
  6 17  1  0
 17 18  2  0
 18  3  1  0
 16  9  1  0
M  END
>  <zinc_id>  (88) 
ZINC000003978779

>  <smiles>  (88) 
COc1ccc(/C=C/c2cc(O)cc(O)c2)cc1

$$$$

     RDKit          3D

 23 25  0  0  0  0  0  0  0  0999 V2000
   -7.4445   -0.4629   -0.3960 C   0  0  0  0  0  0  0  0  0  0  0  0
   -6.5086    0.3248    0.3139 O   0  0  0  0  0  0  0  0  0  0  0  0
   -5.1455    0.1627    0.1854 C   0  0  0  0  0  0  0  0  0  0  0  0
   -4.2707    0.9561    0.9006 C   0  0  0  0  0  0  0  0  0  0  0  0
   -2.9030    0.7636    0.7426 C   0  0  0  0  0  0  0  0  0  0  0  0
   -2.4140   -0.1802   -0.0939 C   0  0  0  0  0  0  0  0  0  0  0  0
   -0.9732   -0.4064   -0.2877 C   0  0  0  0  0  0  0  0  0  0  0  0
   -0.0683    0.3874    0.2451 C   0  0  0  0  0  0  0  0  0  0  0  0
   -0.5207    1.4926    1.0312 C   0  0  0  0  0  0  0  0  0  0  0  0
   -0.8693    2.4053    1.6746 N   0  0  0  0  0  0  0  0  0  0  0  0
    1.3483    0.1270    0.0010 C   0  0  0  0  0  0  0  0  0  0  0  0
    1.8155   -0.8926   -0.7897 C   0  0  0  0  0  0  0  0  0  0  0  0
    3.1662   -1.1167   -1.0138 C   0  0  0  0  0  0  0  0  0  0  0  0
    3.6130   -2.1483   -1.8175 O   0  0  0  0  0  0  0  0  0  0  0  0
    2.8030   -3.0702   -2.4852 C   0  0  0  0  0  0  0  0  0  0  0  0
    4.1163   -0.3047   -0.4368 C   0  0  0  0  0  0  0  0  0  0  0  0
    3.6552    0.7210    0.3583 C   0  0  0  0  0  0  0  0  0  0  0  0
    2.3157    0.9474    0.5832 C   0  0  0  0  0  0  0  0  0  0  0  0
    4.7912    1.3972    0.8269 O   0  0  0  0  0  0  0  0  0  0  0  0
    5.9136    0.9606    0.0449 C   0  0  0  0  0  0  0  0  0  0  0  0
    5.5234   -0.2833   -0.4778 O   0  0  0  0  0  0  0  0  0  0  0  0
   -3.2802   -0.9789   -0.8127 C   0  0  0  0  0  0  0  0  0  0  0  0
   -4.6635   -0.8013   -0.6677 C   0  0  0  0  0  0  0  0  0  0  0  0
  1  2  1  0
  2  3  1  0
  3  4  2  0
  4  5  1  0
  5  6  2  0
  6  7  1  0
  7  8  2  0
  8  9  1  0
  9 10  3  0
  8 11  1  0
 11 12  2  0
 12 13  1  0
 13 14  1  0
 14 15  1  0
 13 16  2  0
 16 17  1  0
 17 18  2  0
 17 19  1  0
 19 20  1  0
 20 21  1  0
  6 22  1  0
 22 23  2  0
 23  3  1  0
 18 11  1  0
 21 16  1  0
M  END
>  <zinc_id>  (89) 
ZINC000066091379

>  <smiles>  (89) 
COc1ccc(/C=C(\C#N)c2cc(OC)c3c(c2)OCO3)cc1

$$$$

     RDKit          3D

 24 26  0  0  0  0  0  0  0  0999 V2000
    0.2647    3.3988   -0.1723 C   0  0  0  0  0  0  0  0  0  0  0  0
    1.4345    2.6957    0.1799 O   0  0  0  0  0  0  0  0  0  0  0  0
    1.6655    1.3800   -0.2310 C   0  0  0  0  0  0  0  0  0  0  0  0
    0.7798    0.6883   -0.9983 C   0  0  0  0  0  0  0  0  0  0  0  0
    0.9273   -0.5989   -1.4433 C   0  0  0  0  0  0  0  0  0  0  0  0
    0.0721   -1.3944   -2.2368 C   0  0  0  0  0  0  0  0  0  0  0  0
   -1.1847   -1.5758   -2.0939 C   0  0  0  0  0  0  0  0  0  0  0  0
   -1.8627   -2.4902   -3.1099 C   0  0  0  0  0  0  0  0  0  0  0  0
   -1.9572   -1.0245   -1.0354 C   0  0  0  0  0  0  0  0  0  0  0  0
   -3.3363   -1.2473   -1.0274 C   0  0  0  0  0  0  0  0  0  0  0  0
   -4.1526   -0.7780   -0.0398 C   0  0  0  0  0  0  0  0  0  0  0  0
   -3.6425   -0.0512    1.0105 C   0  0  0  0  0  0  0  0  0  0  0  0
   -2.2851    0.1832    1.0270 C   0  0  0  0  0  0  0  0  0  0  0  0
   -1.4881   -0.3047    0.0145 C   0  0  0  0  0  0  0  0  0  0  0  0
   -2.0317    0.9233    2.1680 O   0  0  0  0  0  0  0  0  0  0  0  0
   -3.2501    1.4093    2.7055 C   0  0  0  0  0  0  0  0  0  0  0  0
   -4.2052    0.5453    2.1380 O   0  0  0  0  0  0  0  0  0  0  0  0
    2.1334   -1.2022   -1.0294 C   0  0  0  0  0  0  0  0  0  0  0  0
    3.0571   -0.5479   -0.2565 C   0  0  0  0  0  0  0  0  0  0  0  0
    4.2484   -1.1407    0.1536 O   0  0  0  0  0  0  0  0  0  0  0  0
    4.4920   -2.4641   -0.2536 C   0  0  0  0  0  0  0  0  0  0  0  0
    2.8287    0.7514    0.1491 C   0  0  0  0  0  0  0  0  0  0  0  0
    3.7419    1.4211    0.9223 O   0  0  0  0  0  0  0  0  0  0  0  0
    3.7509    1.4234    2.3361 C   0  0  0  0  0  0  0  0  0  0  0  0
  1  2  1  0
  2  3  1  0
  3  4  2  0
  4  5  1  0
  5  6  1  0
  6  7  2  0
  7  8  1  0
  7  9  1  0
  9 10  2  0
 10 11  1  0
 11 12  2  0
 12 13  1  0
 13 14  2  0
 13 15  1  0
 15 16  1  0
 16 17  1  0
  5 18  2  0
 18 19  1  0
 19 20  1  0
 20 21  1  0
 19 22  2  0
 22 23  1  0
 23 24  1  0
 22  3  1  0
 14  9  1  0
 17 12  1  0
M  END
>  <zinc_id>  (90) 
ZINC000017215903

>  <smiles>  (90) 
COc1cc(/C=C(/C)c2ccc3c(c2)OCO3)cc(OC)c1OC

$$$$

     RDKit          3D

 19 20  0  0  0  0  0  0  0  0999 V2000
   -5.6773    0.5610    2.0319 C   0  0  0  0  0  0  0  0  0  0  0  0
   -4.2848    0.6729    2.0716 O   0  0  0  0  0  0  0  0  0  0  0  0
   -3.4405    0.1778    1.0900 C   0  0  0  0  0  0  0  0  0  0  0  0
   -2.0691    0.3301    1.2044 C   0  0  0  0  0  0  0  0  0  0  0  0
   -1.1904   -0.1381    0.2669 C   0  0  0  0  0  0  0  0  0  0  0  0
    0.2364    0.0607    0.4577 C   0  0  0  0  0  0  0  0  0  0  0  0
    1.1308   -0.3708   -0.4160 C   0  0  0  0  0  0  0  0  0  0  0  0
    2.5441   -0.1440   -0.1736 C   0  0  0  0  0  0  0  0  0  0  0  0
    3.4436   -0.6060   -1.1023 C   0  0  0  0  0  0  0  0  0  0  0  0
    4.8002   -0.4235   -0.9324 C   0  0  0  0  0  0  0  0  0  0  0  0
    5.2352    0.2330    0.1902 C   0  0  0  0  0  0  0  0  0  0  0  0
    6.6059    0.4252    0.3756 O   0  0  0  0  0  0  0  0  0  0  0  0
    4.3743    0.7148    1.1498 C   0  0  0  0  0  0  0  0  0  0  0  0
    3.0077    0.5106    0.9424 C   0  0  0  0  0  0  0  0  0  0  0  0
   -1.6613   -0.7918   -0.8468 C   0  0  0  0  0  0  0  0  0  0  0  0
   -3.0302   -0.9670   -1.0023 C   0  0  0  0  0  0  0  0  0  0  0  0
   -3.4779   -1.6271   -2.1300 O   0  0  0  0  0  0  0  0  0  0  0  0
   -2.6574   -2.1352   -3.1321 C   0  0  0  0  0  0  0  0  0  0  0  0
   -3.8890   -0.4864   -0.0449 C   0  0  0  0  0  0  0  0  0  0  0  0
  1  2  1  0
  2  3  1  0
  3  4  2  0
  4  5  1  0
  5  6  1  0
  6  7  2  0
  7  8  1  0
  8  9  2  0
  9 10  1  0
 10 11  2  0
 11 12  1  0
 11 13  1  0
 13 14  2  0
  5 15  2  0
 15 16  1  0
 16 17  1  0
 17 18  1  0
 16 19  2  0
 19  3  1  0
 14  8  1  0
M  END
>  <zinc_id>  (91) 
ZINC000000899213

>  <smiles>  (91) 
COc1cc(/C=C/c2ccc(O)cc2)cc(OC)c1

$$$$

     RDKit          3D

 19 20  0  0  0  0  0  0  0  0999 V2000
   -3.1815    1.2939   -2.9715 C   0  0  0  0  0  0  0  0  0  0  0  0
   -3.9250    0.7726   -1.8895 O   0  0  0  0  0  0  0  0  0  0  0  0
   -3.2141    0.3091   -0.7919 C   0  0  0  0  0  0  0  0  0  0  0  0
   -1.8366    0.3423   -0.7296 C   0  0  0  0  0  0  0  0  0  0  0  0
   -1.1276   -0.1173    0.3592 C   0  0  0  0  0  0  0  0  0  0  0  0
    0.3202   -0.0889    0.4393 C   0  0  0  0  0  0  0  0  0  0  0  0
    1.0407    0.3837   -0.5368 C   0  0  0  0  0  0  0  0  0  0  0  0
    2.5101    0.3974   -0.4221 C   0  0  0  0  0  0  0  0  0  0  0  0
    3.1464   -0.0821    0.7036 C   0  0  0  0  0  0  0  0  0  0  0  0
    4.5220   -0.0635    0.7983 C   0  0  0  0  0  0  0  0  0  0  0  0
    5.3206    0.4284   -0.2129 C   0  0  0  0  0  0  0  0  0  0  0  0
    6.7168    0.4433   -0.1079 O   0  0  0  0  0  0  0  0  0  0  0  0
    4.6750    0.9058   -1.3347 C   0  0  0  0  0  0  0  0  0  0  0  0
    3.3003    0.8916   -1.4391 C   0  0  0  0  0  0  0  0  0  0  0  0
   -1.8713   -0.6271    1.4157 C   0  0  0  0  0  0  0  0  0  0  0  0
   -3.2498   -0.6749    1.3854 C   0  0  0  0  0  0  0  0  0  0  0  0
   -3.9099   -1.2020    2.4884 O   0  0  0  0  0  0  0  0  0  0  0  0
   -5.3072   -1.3051    2.5790 C   0  0  0  0  0  0  0  0  0  0  0  0
   -3.9289   -0.2006    0.2672 C   0  0  0  0  0  0  0  0  0  0  0  0
  1  2  1  0
  2  3  1  0
  3  4  2  0
  4  5  1  0
  5  6  1  0
  6  7  2  3
  7  8  1  0
  8  9  2  0
  9 10  1  0
 10 11  2  0
 11 12  1  0
 11 13  1  0
 13 14  2  0
  5 15  2  0
 15 16  1  0
 16 17  1  0
 17 18  1  0
 16 19  2  0
 19  3  1  0
 14  8  1  0
M  END
>  <zinc_id>  (92) 
ZINC001857538846

>  <smiles>  (92) 
COc1cc(C=Cc2ccc(O)cc2)cc(OC)c1

$$$$

     RDKit          3D

 22 24  0  0  0  0  0  0  0  0999 V2000
   -6.9175    1.5582    0.1156 C   0  0  0  0  0  0  0  0  0  0  0  0
   -6.3604    0.2539    0.0463 O   0  0  0  0  0  0  0  0  0  0  0  0
   -5.0027    0.0464    0.0487 C   0  0  0  0  0  0  0  0  0  0  0  0
   -4.1509    1.1102    0.1189 C   0  0  0  0  0  0  0  0  0  0  0  0
   -2.7861    0.8815    0.1200 C   0  0  0  0  0  0  0  0  0  0  0  0
   -2.2600   -0.3906    0.0523 C   0  0  0  0  0  0  0  0  0  0  0  0
   -0.8096   -0.6265    0.0539 C   0  0  0  0  0  0  0  0  0  0  0  0
    0.0737    0.3255    0.1181 C   0  0  0  0  0  0  0  0  0  0  0  0
    1.5130    0.1426    0.1227 C   0  0  0  0  0  0  0  0  0  0  0  0
    2.2895    1.2964    0.1973 C   0  0  0  0  0  0  0  0  0  0  0  0
    3.6588    1.2036    0.2063 C   0  0  0  0  0  0  0  0  0  0  0  0
    4.4177    2.3543    0.2805 O   0  0  0  0  0  0  0  0  0  0  0  0
    3.8913    3.6437    0.3493 C   0  0  0  0  0  0  0  0  0  0  0  0
    4.2446   -0.0338    0.1412 C   0  0  0  0  0  0  0  0  0  0  0  0
    3.4944   -1.1997    0.0661 C   0  0  0  0  0  0  0  0  0  0  0  0
    2.1253   -1.0814    0.0586 C   0  0  0  0  0  0  0  0  0  0  0  0
    4.3765   -2.2966    0.0122 O   0  0  0  0  0  0  0  0  0  0  0  0
    5.6681   -1.7539   -0.1684 C   0  0  0  0  0  0  0  0  0  0  0  0
    5.5759   -0.3912    0.1345 O   0  0  0  0  0  0  0  0  0  0  0  0
   -3.1370   -1.4503   -0.0179 C   0  0  0  0  0  0  0  0  0  0  0  0
   -4.5135   -1.2382   -0.0202 C   0  0  0  0  0  0  0  0  0  0  0  0
   -5.3913   -2.3545   -0.0937 N   0  0  0  0  0  0  0  0  0  0  0  0
  1  2  1  0
  2  3  1  0
  3  4  2  0
  4  5  1  0
  5  6  2  0
  6  7  1  0
  7  8  2  0
  8  9  1  0
  9 10  2  0
 10 11  1  0
 11 12  1  0
 12 13  1  0
 11 14  2  0
 14 15  1  0
 15 16  2  0
 15 17  1  0
 17 18  1  0
 18 19  1  0
  6 20  1  0
 20 21  2  0
 21 22  1  0
 21  3  1  0
 16  9  1  0
 19 14  1  0
M  END
>  <zinc_id>  (93) 
ZINC000033796338

>  <smiles>  (93) 
COc1ccc(/C=C/c2cc(OC)c3c(c2)OCO3)cc1N

$$$$

     RDKit          3D

 27 29  0  0  0  0  0  0  0  0999 V2000
   -4.2370    2.6916    2.5987 C   0  0  0  0  0  0  0  0  0  0  0  0
   -4.7693    1.8655    1.5861 O   0  0  0  0  0  0  0  0  0  0  0  0
   -3.9294    1.1986    0.7111 C   0  0  0  0  0  0  0  0  0  0  0  0
   -2.5683    1.3598    0.8525 C   0  0  0  0  0  0  0  0  0  0  0  0
   -1.6520    0.7368    0.0288 C   0  0  0  0  0  0  0  0  0  0  0  0
   -0.2123    0.9134    0.1853 C   0  0  0  0  0  0  0  0  0  0  0  0
    0.5931   -0.1236   -0.0387 C   0  0  0  0  0  0  0  0  0  0  0  0
   -0.0169   -1.3631   -0.4248 C   0  0  0  0  0  0  0  0  0  0  0  0
   -0.5104   -2.3789   -0.7438 N   0  0  0  0  0  0  0  0  0  0  0  0
    2.0392   -0.0255    0.0972 C   0  0  0  0  0  0  0  0  0  0  0  0
    2.8094   -1.1313   -0.1493 C   0  0  0  0  0  0  0  0  0  0  0  0
    4.1904   -1.1291   -0.0441 C   0  0  0  0  0  0  0  0  0  0  0  0
    4.8718   -2.2979   -0.3149 O   0  0  0  0  0  0  0  0  0  0  0  0
    4.2112   -3.4833   -0.6906 C   0  0  0  0  0  0  0  0  0  0  0  0
    4.8029    0.0392    0.3240 C   0  0  0  0  0  0  0  0  0  0  0  0
    4.0473    1.1628    0.5766 C   0  0  0  0  0  0  0  0  0  0  0  0
    2.6739    1.1392    0.4662 C   0  0  0  0  0  0  0  0  0  0  0  0
    4.9344    2.1596    0.9185 O   0  0  0  0  0  0  0  0  0  0  0  0
    6.2086    1.5987    1.1746 C   0  0  0  0  0  0  0  0  0  0  0  0
    6.1399    0.3431    0.5085 O   0  0  0  0  0  0  0  0  0  0  0  0
   -2.1766   -0.0721   -0.9634 C   0  0  0  0  0  0  0  0  0  0  0  0
   -3.5345   -0.2535   -1.1299 C   0  0  0  0  0  0  0  0  0  0  0  0
   -4.0439   -1.0696   -2.1320 O   0  0  0  0  0  0  0  0  0  0  0  0
   -3.1563   -1.7394   -3.0138 C   0  0  0  0  0  0  0  0  0  0  0  0
   -4.4283    0.3807   -0.2933 C   0  0  0  0  0  0  0  0  0  0  0  0
   -5.7978    0.2491   -0.3965 O   0  0  0  0  0  0  0  0  0  0  0  0
   -6.4891   -0.7711    0.3068 C   0  0  0  0  0  0  0  0  0  0  0  0
  1  2  1  0
  2  3  1  0
  3  4  2  0
  4  5  1  0
  5  6  1  0
  6  7  2  0
  7  8  1  0
  8  9  3  0
  7 10  1  0
 10 11  2  0
 11 12  1  0
 12 13  1  0
 13 14  1  0
 12 15  2  0
 15 16  1  0
 16 17  2  0
 16 18  1  0
 18 19  1  0
 19 20  1  0
  5 21  2  0
 21 22  1  0
 22 23  1  0
 23 24  1  0
 22 25  2  0
 25 26  1  0
 26 27  1  0
 25  3  1  0
 17 10  1  0
 20 15  1  0
M  END
>  <zinc_id>  (94) 
ZINC000066091622

>  <smiles>  (94) 
COc1cc(/C=C(\C#N)c2cc(OC)c3c(c2)OCO3)cc(OC)c1OC

$$$$

     RDKit          3D

 23 24  0  0  0  0  0  0  0  0999 V2000
    6.4118    0.3096    0.5576 C   0  0  0  0  0  0  0  0  0  0  0  0
    5.0821    0.1185    0.9672 O   0  0  0  0  0  0  0  0  0  0  0  0
    3.9891    0.3903    0.1594 C   0  0  0  0  0  0  0  0  0  0  0  0
    4.1168    0.8725   -1.1181 C   0  0  0  0  0  0  0  0  0  0  0  0
    3.0524    1.1451   -1.9252 C   0  0  0  0  0  0  0  0  0  0  0  0
    1.7313    0.9431   -1.4859 C   0  0  0  0  0  0  0  0  0  0  0  0
    0.6678    1.3336   -2.3312 C   0  0  0  0  0  0  0  0  0  0  0  0
   -0.5293    1.1072   -2.2478 C   0  0  0  0  0  0  0  0  0  0  0  0
   -1.2136    0.3440   -1.2430 C   0  0  0  0  0  0  0  0  0  0  0  0
   -0.7342   -0.5173   -0.3136 C   0  0  0  0  0  0  0  0  0  0  0  0
   -1.5732   -1.1133    0.5869 C   0  0  0  0  0  0  0  0  0  0  0  0
   -1.1541   -2.0105    1.5596 O   0  0  0  0  0  0  0  0  0  0  0  0
    0.1758   -2.4172    1.7168 C   0  0  0  0  0  0  0  0  0  0  0  0
   -2.9429   -0.8383    0.5619 C   0  0  0  0  0  0  0  0  0  0  0  0
   -3.8077   -1.4470    1.4864 O   0  0  0  0  0  0  0  0  0  0  0  0
   -4.0608   -0.8029    2.7313 C   0  0  0  0  0  0  0  0  0  0  0  0
   -3.4169    0.0231   -0.3676 C   0  0  0  0  0  0  0  0  0  0  0  0
   -4.7906    0.3410   -0.4421 O   0  0  0  0  0  0  0  0  0  0  0  0
   -5.2600    1.2406   -1.4178 C   0  0  0  0  0  0  0  0  0  0  0  0
   -2.6077    0.6242   -1.2710 C   0  0  0  0  0  0  0  0  0  0  0  0
    1.6252    0.4639   -0.2180 C   0  0  0  0  0  0  0  0  0  0  0  0
    2.6894    0.1809    0.6202 C   0  0  0  0  0  0  0  0  0  0  0  0
    2.5493   -0.2911    1.9325 N   0  0  0  0  0  0  0  0  0  0  0  0
  1  2  1  0
  2  3  1  0
  3  4  2  0
  4  5  1  0
  5  6  2  0
  6  7  1  0
  7  8  2  0
  8  9  1  0
  9 10  2  0
 10 11  1  0
 11 12  1  0
 12 13  1  0
 11 14  2  0
 14 15  1  0
 15 16  1  0
 14 17  1  0
 17 18  1  0
 18 19  1  0
 17 20  2  0
  6 21  1  0
 21 22  2  0
 22 23  1  0
 22  3  1  0
 20  9  1  0
M  END
>  <zinc_id>  (95) 
ZINC000000007280

>  <smiles>  (95) 
COc1ccc(/C=C\c2cc(OC)c(OC)c(OC)c2)cc1N

$$$$

     RDKit          3D

 18 19  0  0  0  0  0  0  0  0999 V2000
    6.6379   -0.4455   -0.0577 C   0  0  0  0  0  0  0  0  0  0  0  0
    5.7755    0.2123   -0.9449 O   0  0  0  0  0  0  0  0  0  0  0  0
    4.3856    0.2058   -0.7452 C   0  0  0  0  0  0  0  0  0  0  0  0
    3.8040   -0.4413    0.3230 C   0  0  0  0  0  0  0  0  0  0  0  0
    2.4182   -0.4245    0.4866 C   0  0  0  0  0  0  0  0  0  0  0  0
    1.5942    0.2278   -0.3977 C   0  0  0  0  0  0  0  0  0  0  0  0
    0.1622    0.2727   -0.2706 C   0  0  0  0  0  0  0  0  0  0  0  0
   -0.5409   -0.2874    0.6813 C   0  0  0  0  0  0  0  0  0  0  0  0
   -2.0087   -0.1111    0.6124 C   0  0  0  0  0  0  0  0  0  0  0  0
   -2.6043    0.6118   -0.4107 C   0  0  0  0  0  0  0  0  0  0  0  0
   -3.9611    0.7923   -0.5011 C   0  0  0  0  0  0  0  0  0  0  0  0
   -4.4923    1.5233   -1.5454 O   0  0  0  0  0  0  0  0  0  0  0  0
   -4.7866    0.2549    0.4327 C   0  0  0  0  0  0  0  0  0  0  0  0
   -4.1988   -0.4717    1.4625 C   0  0  0  0  0  0  0  0  0  0  0  0
   -5.0921   -1.0066    2.4018 O   0  0  0  0  0  0  0  0  0  0  0  0
   -2.8389   -0.6581    1.5616 C   0  0  0  0  0  0  0  0  0  0  0  0
    2.1836    0.8708   -1.4606 C   0  0  0  0  0  0  0  0  0  0  0  0
    3.5625    0.8572   -1.6281 C   0  0  0  0  0  0  0  0  0  0  0  0
  1  2  1  0
  2  3  1  0
  3  4  2  0
  4  5  1  0
  5  6  2  0
  6  7  1  0
  7  8  2  3
  8  9  1  0
  9 10  2  0
 10 11  1  0
 11 12  1  0
 11 13  2  0
 13 14  1  0
 14 15  1  0
 14 16  2  0
  6 17  1  0
 17 18  2  0
 18  3  1  0
 16  9  1  0
M  END
>  <zinc_id>  (96) 
ZINC001857776228

>  <smiles>  (96) 
COc1ccc(C=Cc2cc(O)cc(O)c2)cc1

$$$$

     RDKit          3D

 22 23  0  0  0  0  0  0  0  0999 V2000
   -3.9999    0.5355   -2.8577 C   0  0  0  0  0  0  0  0  0  0  0  0
   -4.7476    0.2983   -1.6799 O   0  0  0  0  0  0  0  0  0  0  0  0
   -4.0285    0.0742   -0.4956 C   0  0  0  0  0  0  0  0  0  0  0  0
   -2.6499    0.0809   -0.4611 C   0  0  0  0  0  0  0  0  0  0  0  0
   -1.9062   -0.1340    0.6770 C   0  0  0  0  0  0  0  0  0  0  0  0
   -0.4537   -0.0972    0.5613 C   0  0  0  0  0  0  0  0  0  0  0  0
    0.1903    0.1260   -0.5503 C   0  0  0  0  0  0  0  0  0  0  0  0
    1.6668    0.1547   -0.6229 C   0  0  0  0  0  0  0  0  0  0  0  0
    2.2669    0.3982   -1.8410 C   0  0  0  0  0  0  0  0  0  0  0  0
    3.6364    0.4407   -1.9903 C   0  0  0  0  0  0  0  0  0  0  0  0
    4.4500    0.2357   -0.8990 C   0  0  0  0  0  0  0  0  0  0  0  0
    5.8528    0.2737   -1.0234 O   0  0  0  0  0  0  0  0  0  0  0  0
    6.4652    0.5205   -2.2573 C   0  0  0  0  0  0  0  0  0  0  0  0
    3.8488   -0.0070    0.3147 C   0  0  0  0  0  0  0  0  0  0  0  0
    4.7046   -0.2109    1.4025 O   0  0  0  0  0  0  0  0  0  0  0  0
    4.1355   -0.4627    2.6642 C   0  0  0  0  0  0  0  0  0  0  0  0
    2.4660   -0.0497    0.4642 C   0  0  0  0  0  0  0  0  0  0  0  0
   -2.5589   -0.3708    1.8575 C   0  0  0  0  0  0  0  0  0  0  0  0
   -3.9594   -0.3861    1.8658 C   0  0  0  0  0  0  0  0  0  0  0  0
   -4.6543   -0.6222    3.0403 O   0  0  0  0  0  0  0  0  0  0  0  0
   -6.0589   -0.6321    3.0208 C   0  0  0  0  0  0  0  0  0  0  0  0
   -4.6660   -0.1660    0.7028 C   0  0  0  0  0  0  0  0  0  0  0  0
  1  2  1  0
  2  3  1  0
  3  4  2  0
  4  5  1  0
  5  6  1  0
  6  7  2  0
  7  8  1  0
  8  9  2  0
  9 10  1  0
 10 11  2  0
 11 12  1  0
 12 13  1  0
 11 14  1  0
 14 15  1  0
 15 16  1  0
 14 17  2  0
  5 18  2  0
 18 19  1  0
 19 20  1  0
 20 21  1  0
 19 22  2  0
 22  3  1  0
 17  8  1  0
M  END
>  <zinc_id>  (97) 
ZINC000001616881

>  <smiles>  (97) 
COc1cc(/C=C/c2ccc(OC)c(OC)c2)cc(OC)c1

$$$$

     RDKit          3D

 27 29  0  0  0  0  0  0  0  0999 V2000
    5.3073    2.3228    0.3067 C   0  0  0  0  0  0  0  0  0  0  0  0
    4.8109    1.0823   -0.1430 O   0  0  0  0  0  0  0  0  0  0  0  0
    3.4669    0.7443   -0.1098 C   0  0  0  0  0  0  0  0  0  0  0  0
    2.5135    1.6148    0.3736 C   0  0  0  0  0  0  0  0  0  0  0  0
    1.1546    1.2639    0.4037 C   0  0  0  0  0  0  0  0  0  0  0  0
    0.2256    2.2470    0.8969 C   0  0  0  0  0  0  0  0  0  0  0  0
    0.7037    3.5912    1.2707 C   0  0  0  0  0  0  0  0  0  0  0  0
    1.0820    4.6435    1.5539 N   0  0  0  0  0  0  0  0  0  0  0  0
   -1.0137    2.0385    1.0377 C   0  0  0  0  0  0  0  0  0  0  0  0
   -1.7297    0.8317    0.7557 C   0  0  0  0  0  0  0  0  0  0  0  0
   -2.9008    0.9214   -0.0215 C   0  0  0  0  0  0  0  0  0  0  0  0
   -3.7003   -0.1586   -0.3123 C   0  0  0  0  0  0  0  0  0  0  0  0
   -4.8607   -0.0280   -1.0913 O   0  0  0  0  0  0  0  0  0  0  0  0
   -5.1716    1.2658   -1.5650 C   0  0  0  0  0  0  0  0  0  0  0  0
   -3.3661   -1.4024    0.1656 C   0  0  0  0  0  0  0  0  0  0  0  0
   -2.2296   -1.5435    0.9314 C   0  0  0  0  0  0  0  0  0  0  0  0
   -1.4360   -0.4331    1.2118 C   0  0  0  0  0  0  0  0  0  0  0  0
   -2.1522   -2.8856    1.2639 O   0  0  0  0  0  0  0  0  0  0  0  0
   -3.1139   -3.6456    0.5648 C   0  0  0  0  0  0  0  0  0  0  0  0
   -3.9756   -2.6330    0.0295 O   0  0  0  0  0  0  0  0  0  0  0  0
    0.8689    0.0258   -0.0719 C   0  0  0  0  0  0  0  0  0  0  0  0
    1.7949   -0.8641   -0.5599 C   0  0  0  0  0  0  0  0  0  0  0  0
    1.4844   -2.1248   -1.0424 O   0  0  0  0  0  0  0  0  0  0  0  0
    0.2150   -2.6934   -1.1153 C   0  0  0  0  0  0  0  0  0  0  0  0
    3.1352   -0.5077   -0.5853 C   0  0  0  0  0  0  0  0  0  0  0  0
    4.1064   -1.3738   -1.0692 O   0  0  0  0  0  0  0  0  0  0  0  0
    4.7810   -2.2994   -0.2425 C   0  0  0  0  0  0  0  0  0  0  0  0
  1  2  1  0
  2  3  1  0
  3  4  2  0
  4  5  1  0
  5  6  1  0
  6  7  1  0
  7  8  3  0
  6  9  2  0
  9 10  1  0
 10 11  2  0
 11 12  1  0
 12 13  1  0
 13 14  1  0
 12 15  2  0
 15 16  1  0
 16 17  2  0
 16 18  1  0
 18 19  1  0
 19 20  1  0
  5 21  2  0
 21 22  1  0
 22 23  1  0
 23 24  1  0
 22 25  2  0
 25 26  1  0
 26 27  1  0
 25  3  1  0
 17 10  1  0
 20 15  1  0
M  END
>  <zinc_id>  (98) 
ZINC000096137282

>  <smiles>  (98) 
COc1cc(/C(C#N)=C\c2cc(OC)c3c(c2)OCO3)cc(OC)c1OC

$$$$

     RDKit          3D

 17 18  0  0  0  0  0  0  0  0999 V2000
    4.8138    1.4522    0.6359 O   0  0  0  0  0  0  0  0  0  0  0  0
    3.7337    0.6342    0.3480 C   0  0  0  0  0  0  0  0  0  0  0  0
    3.8682   -0.6755   -0.0411 C   0  0  0  0  0  0  0  0  0  0  0  0
    2.8312   -1.5114   -0.3328 C   0  0  0  0  0  0  0  0  0  0  0  0
    1.4915   -1.0612   -0.2489 C   0  0  0  0  0  0  0  0  0  0  0  0
    0.5343   -2.0667   -0.5885 C   0  0  0  0  0  0  0  0  0  0  0  0
   -0.7123   -2.0257   -0.6243 C   0  0  0  0  0  0  0  0  0  0  0  0
   -1.5013   -0.8770   -0.3088 C   0  0  0  0  0  0  0  0  0  0  0  0
   -2.8991   -0.9675   -0.3899 C   0  0  0  0  0  0  0  0  0  0  0  0
   -3.6976    0.1011   -0.0990 C   0  0  0  0  0  0  0  0  0  0  0  0
   -5.0745    0.0107   -0.1792 O   0  0  0  0  0  0  0  0  0  0  0  0
   -3.1763    1.3193    0.2878 C   0  0  0  0  0  0  0  0  0  0  0  0
   -1.7827    1.4270    0.3739 C   0  0  0  0  0  0  0  0  0  0  0  0
   -1.1939    2.6114    0.7531 O   0  0  0  0  0  0  0  0  0  0  0  0
   -1.0170    0.3222    0.0708 C   0  0  0  0  0  0  0  0  0  0  0  0
    1.3722    0.2275    0.1345 C   0  0  0  0  0  0  0  0  0  0  0  0
    2.4099    1.0792    0.4310 C   0  0  0  0  0  0  0  0  0  0  0  0
  1  2  1  0
  2  3  2  0
  3  4  1  0
  4  5  2  0
  5  6  1  0
  6  7  2  0
  7  8  1  0
  8  9  2  0
  9 10  1  0
 10 11  1  0
 10 12  2  0
 12 13  1  0
 13 14  1  0
 13 15  2  0
  5 16  1  0
 16 17  2  0
 17  2  1  0
 15  8  1  0
M  END
>  <zinc_id>  (99) 
ZINC000012353732

>  <smiles>  (99) 
Oc1ccc(/C=C\c2cc(O)cc(O)c2)cc1

$$$$

     RDKit          3D

 28 30  0  0  0  0  0  0  0  0999 V2000
   -5.8408    2.1590    1.8313 O   0  0  0  0  0  0  0  0  0  0  0  0
   -4.5442    1.6554    1.9449 C   0  0  0  0  0  0  0  0  0  0  0  0
   -4.7106    0.0118    1.4838 C   0  0  2  0  0  0  0  0  0  0  0  0
   -3.2675   -0.2261    1.7118 O   0  0  0  0  0  0  0  0  0  0  0  0
   -3.1582   -1.6016    1.1565 C   0  0  2  0  0  0  0  0  0  0  0  0
   -1.5805   -1.6845    1.4492 O   0  0  0  0  0  0  0  0  0  0  0  0
   -0.8039   -0.9521    0.6149 C   0  0  0  0  0  0  0  0  0  0  0  0
   -1.4932    0.1613    0.0513 C   0  0  0  0  0  0  0  0  0  0  0  0
   -0.9414    1.0425   -0.8002 C   0  0  0  0  0  0  0  0  0  0  0  0
   -1.7254    2.1273   -1.3025 O   0  0  0  0  0  0  0  0  0  0  0  0
    0.3596    0.8511   -1.1479 C   0  0  0  0  0  0  0  0  0  0  0  0
    1.1426   -0.2444   -0.6350 C   0  0  0  0  0  0  0  0  0  0  0  0
    2.4653   -0.3492   -1.1949 C   0  0  0  0  0  0  0  0  0  0  0  0
    3.5856   -0.1727   -0.8430 C   0  0  0  0  0  0  0  0  0  0  0  0
    4.8941    0.0147   -0.4904 C   0  0  0  0  0  0  0  0  0  0  0  0
    5.1747    0.3246    0.8787 C   0  0  0  0  0  0  0  0  0  0  0  0
    6.5003    0.6489    1.2478 C   0  0  0  0  0  0  0  0  0  0  0  0
    7.5088    0.6761    0.3256 C   0  0  0  0  0  0  0  0  0  0  0  0
    8.8126    1.0284    0.6594 O   0  0  0  0  0  0  0  0  0  0  0  0
    7.2451    0.3608   -1.0187 C   0  0  0  0  0  0  0  0  0  0  0  0
    5.9853    0.0453   -1.3872 C   0  0  0  0  0  0  0  0  0  0  0  0
    0.4917   -1.0784    0.2272 C   0  0  0  0  0  0  0  0  0  0  0  0
   -2.9696   -1.3001   -0.5188 C   0  0  1  0  0  0  0  0  0  0  0  0
   -3.0602   -2.7535   -0.8972 O   0  0  0  0  0  0  0  0  0  0  0  0
   -4.7272   -1.1556   -0.6935 C   0  0  2  0  0  0  0  0  0  0  0  0
   -4.6078   -0.7668   -2.1390 O   0  0  0  0  0  0  0  0  0  0  0  0
   -4.6233    0.4702   -0.1726 C   0  0  1  0  0  0  0  0  0  0  0  0
   -6.1119    0.7074   -0.2861 O   0  0  0  0  0  0  0  0  0  0  0  0
  1  2  1  0
  3  2  1  1
  3  4  1  0
  4  5  1  0
  5  6  1  1
  6  7  1  0
  7  8  2  0
  8  9  1  0
  9 10  1  0
  9 11  2  0
 11 12  1  0
 12 13  1  0
 13 14  2  0
 14 15  1  0
 15 16  2  0
 16 17  1  0
 17 18  2  0
 18 19  1  0
 18 20  1  0
 20 21  2  0
 12 22  2  0
  5 23  1  0
 23 24  1  6
 23 25  1  0
 25 26  1  6
 25 27  1  0
 27 28  1  6
 27  3  1  0
 22  7  1  0
 21 15  1  0
M  END
>  <zinc_id>  (100) 
ZINC000000899166

>  <smiles>  (100) 
OC[C@@H]1O[C@H](Oc2cc(O)cc(/C=C/c3ccc(O)cc3)c2)[C@@H](O)[C@H](O)[C@H]1O

$$$$
