
     RDKit          3D

 17 18  0  0  0  0  0  0  0  0999 V2000
    4.7958   -1.3570    2.2582 C   0  0  0  0  0  0  0  0  0  0  0  0
    3.8934   -0.7431    1.2627 C   0  0  0  0  0  0  0  0  0  0  0  0
    4.4038   -0.0838    0.1393 C   0  0  0  0  0  0  0  0  0  0  0  0
    3.5759    0.4956   -0.8013 C   0  0  0  0  0  0  0  0  0  0  0  0
    4.1001    1.2013   -2.0029 C   0  0  0  0  0  0  0  0  0  0  0  0
    2.2202    0.3979   -0.5880 C   0  0  0  0  0  0  0  0  0  0  0  0
    1.6820   -0.2430    0.5055 C   0  0  0  0  0  0  0  0  0  0  0  0
    0.2272   -0.2822    0.6245 C   0  0  0  0  0  0  0  0  0  0  0  0
   -0.5763    0.2612   -0.2567 C   0  0  0  0  0  0  0  0  0  0  0  0
   -2.0356    0.2208   -0.1357 C   0  0  0  0  0  0  0  0  0  0  0  0
   -2.6313   -0.4071    0.9382 C   0  0  0  0  0  0  0  0  0  0  0  0
   -4.0104   -0.4380    1.0405 C   0  0  0  0  0  0  0  0  0  0  0  0
   -4.8406    0.1398    0.1024 C   0  0  0  0  0  0  0  0  0  0  0  0
   -6.2235    0.0753    0.2610 O   0  0  0  0  0  0  0  0  0  0  0  0
   -4.2446    0.7718   -0.9785 C   0  0  0  0  0  0  0  0  0  0  0  0
   -2.8612    0.7995   -1.0754 C   0  0  0  0  0  0  0  0  0  0  0  0
    2.5252   -0.8089    1.4229 C   0  0  0  0  0  0  0  0  0  0  0  0
  1  2  1  0
  2  3  2  0
  3  4  1  0
  4  5  1  0
  4  6  2  0
  6  7  1  0
  7  8  1  0
  8  9  2  0
  9 10  1  0
 10 11  2  0
 11 12  1  0
 12 13  2  0
 13 14  1  0
 13 15  1  0
 15 16  2  0
  7 17  2  0
 17  2  1  0
 16 10  1  0
M  END
>  <zinc_id>  (1) 
ZINC000034604771

>  <smiles>  (1) 
Cc1cc(C)cc(/C=C/c2ccc(O)cc2)c1

$$$$

     RDKit          3D

 17 18  0  0  0  0  0  0  0  0999 V2000
    6.2800    0.0255    0.6471 C   0  0  0  0  0  0  0  0  0  0  0  0
    4.8045   -0.0574    0.3663 C   0  0  0  0  0  0  0  0  0  0  0  0
    3.9306    0.8798    0.8866 C   0  0  0  0  0  0  0  0  0  0  0  0
    2.5800    0.7752    0.6094 C   0  0  0  0  0  0  0  0  0  0  0  0
    2.0629   -0.2300   -0.1687 C   0  0  0  0  0  0  0  0  0  0  0  0
    0.6403   -0.3632   -0.4766 C   0  0  0  0  0  0  0  0  0  0  0  0
   -0.2807    0.4496   -0.0500 C   0  0  0  0  0  0  0  0  0  0  0  0
   -1.7126    0.2744   -0.3886 C   0  0  0  0  0  0  0  0  0  0  0  0
   -2.1432   -0.7611   -1.1748 C   0  0  0  0  0  0  0  0  0  0  0  0
   -3.4742   -0.9290   -1.4931 C   0  0  0  0  0  0  0  0  0  0  0  0
   -3.9579   -1.9602   -2.2842 O   0  0  0  0  0  0  0  0  0  0  0  0
   -4.3845   -0.0200   -0.9979 C   0  0  0  0  0  0  0  0  0  0  0  0
   -3.9915    1.0400   -0.2004 C   0  0  0  0  0  0  0  0  0  0  0  0
   -4.9508    1.9396    0.2808 O   0  0  0  0  0  0  0  0  0  0  0  0
   -2.6609    1.1584    0.0834 C   0  0  0  0  0  0  0  0  0  0  0  0
    2.9441   -1.1551   -0.6795 C   0  0  0  0  0  0  0  0  0  0  0  0
    4.3138   -1.0666   -0.4107 C   0  0  0  0  0  0  0  0  0  0  0  0
  1  2  1  0
  2  3  2  0
  3  4  1  0
  4  5  2  0
  5  6  1  0
  6  7  2  0
  7  8  1  0
  8  9  2  0
  9 10  1  0
 10 11  1  0
 10 12  2  0
 12 13  1  0
 13 14  1  0
 13 15  2  0
  5 16  1  0
 16 17  2  0
 17  2  1  0
 15  8  1  0
M  END
>  <zinc_id>  (2) 
ZINC000039110895

>  <smiles>  (2) 
Cc1ccc(/C=C/c2cc(O)cc(O)c2)cc1

$$$$

     RDKit          3D

 17 18  0  0  0  0  0  0  0  0999 V2000
   -6.2198    0.6151   -0.7818 N   0  0  0  0  0  0  0  0  0  0  0  0
   -4.8011    0.5317   -0.6046 C   0  0  0  0  0  0  0  0  0  0  0  0
   -4.0856   -0.5358   -1.1060 C   0  0  0  0  0  0  0  0  0  0  0  0
   -2.7132   -0.6273   -0.9409 C   0  0  0  0  0  0  0  0  0  0  0  0
   -2.0019    0.3493   -0.2653 C   0  0  0  0  0  0  0  0  0  0  0  0
   -0.5755    0.3125   -0.0600 C   0  0  0  0  0  0  0  0  0  0  0  0
    0.2355   -0.6199   -0.4685 C   0  0  0  0  0  0  0  0  0  0  0  0
    1.6666   -0.4704   -0.1551 C   0  0  0  0  0  0  0  0  0  0  0  0
    2.1516    0.6141    0.5468 C   0  0  0  0  0  0  0  0  0  0  0  0
    3.5190    0.6687    0.7953 C   0  0  0  0  0  0  0  0  0  0  0  0
    4.0732    1.7477    1.5050 O   0  0  0  0  0  0  0  0  0  0  0  0
    4.3858   -0.2993    0.3751 C   0  0  0  0  0  0  0  0  0  0  0  0
    3.8822   -1.3879   -0.3321 C   0  0  0  0  0  0  0  0  0  0  0  0
    4.7678   -2.3634   -0.7536 O   0  0  0  0  0  0  0  0  0  0  0  0
    2.5321   -1.4545   -0.5848 C   0  0  0  0  0  0  0  0  0  0  0  0
   -2.7201    1.4150    0.2347 C   0  0  0  0  0  0  0  0  0  0  0  0
   -4.0968    1.5044    0.0677 C   0  0  0  0  0  0  0  0  0  0  0  0
  1  2  1  0
  2  3  2  0
  3  4  1  0
  4  5  2  0
  5  6  1  0
  6  7  2  0
  7  8  1  0
  8  9  2  0
  9 10  1  0
 10 11  1  0
 10 12  2  0
 12 13  1  0
 13 14  1  0
 13 15  2  0
  5 16  1  0
 16 17  2  0
 17  2  1  0
 15  8  1  0
M  END
>  <zinc_id>  (3) 
ZINC000053313765

>  <smiles>  (3) 
Nc1ccc(/C=C/c2cc(O)cc(O)c2)cc1

$$$$

     RDKit          3D

 17 18  0  0  0  0  0  0  0  0999 V2000
   -4.4961   -2.8061    0.5885 C   0  0  0  0  0  0  0  0  0  0  0  0
   -3.7029   -1.5681    0.3830 C   0  0  0  0  0  0  0  0  0  0  0  0
   -4.4146   -0.4040    0.1027 C   0  0  0  0  0  0  0  0  0  0  0  0
   -3.7332    0.7780   -0.0980 C   0  0  0  0  0  0  0  0  0  0  0  0
   -4.4798    1.9151   -0.3749 O   0  0  0  0  0  0  0  0  0  0  0  0
   -2.3558    0.7825   -0.0168 C   0  0  0  0  0  0  0  0  0  0  0  0
   -1.6430   -0.3644    0.2600 C   0  0  0  0  0  0  0  0  0  0  0  0
   -0.1883   -0.3944    0.3529 C   0  0  0  0  0  0  0  0  0  0  0  0
    0.5893    0.6351    0.1889 C   0  0  0  0  0  0  0  0  0  0  0  0
    2.0659    0.5463    0.2951 C   0  0  0  0  0  0  0  0  0  0  0  0
    2.8471    1.6550    0.1152 C   0  0  0  0  0  0  0  0  0  0  0  0
    4.2125    1.5593    0.2162 C   0  0  0  0  0  0  0  0  0  0  0  0
    4.8019    0.3266    0.5031 C   0  0  0  0  0  0  0  0  0  0  0  0
    6.1868    0.3099    0.5891 O   0  0  0  0  0  0  0  0  0  0  0  0
    4.0002   -0.7734    0.6800 C   0  0  0  0  0  0  0  0  0  0  0  0
    2.6449   -0.6581    0.5757 C   0  0  0  0  0  0  0  0  0  0  0  0
   -2.3348   -1.5392    0.4587 C   0  0  0  0  0  0  0  0  0  0  0  0
  1  2  1  0
  2  3  2  0
  3  4  1  0
  4  5  1  0
  4  6  2  0
  6  7  1  0
  7  8  1  0
  8  9  2  0
  9 10  1  0
 10 11  2  0
 11 12  1  0
 12 13  2  0
 13 14  1  0
 13 15  1  0
 15 16  2  0
  7 17  2  0
 17  2  1  0
 16 10  1  0
M  END
>  <zinc_id>  (4) 
ZINC000029553557

>  <smiles>  (4) 
Cc1cc(O)cc(/C=C/c2ccc(O)cc2)c1

$$$$

     RDKit          3D

 17 18  0  0  0  0  0  0  0  0999 V2000
   -4.2867   -0.8777    1.7157 C   0  0  0  0  0  0  0  0  0  0  0  0
   -3.5847   -0.0057    0.7426 C   0  0  0  0  0  0  0  0  0  0  0  0
   -2.2388   -0.1515    0.5627 C   0  0  0  0  0  0  0  0  0  0  0  0
   -1.5680    0.6470   -0.3349 C   0  0  0  0  0  0  0  0  0  0  0  0
   -0.1415    0.4702   -0.5049 C   0  0  0  0  0  0  0  0  0  0  0  0
    0.4894   -0.4421    0.1934 C   0  0  0  0  0  0  0  0  0  0  0  0
    1.9374   -0.6685    0.0644 C   0  0  0  0  0  0  0  0  0  0  0  0
    2.5838   -1.6320    0.8067 C   0  0  0  0  0  0  0  0  0  0  0  0
    3.9426   -1.8323    0.6743 C   0  0  0  0  0  0  0  0  0  0  0  0
    4.7163   -1.0910   -0.1943 C   0  0  0  0  0  0  0  0  0  0  0  0
    6.0872   -1.3155   -0.3069 O   0  0  0  0  0  0  0  0  0  0  0  0
    4.0696   -0.1256   -0.9382 C   0  0  0  0  0  0  0  0  0  0  0  0
    2.7127    0.0705   -0.8024 C   0  0  0  0  0  0  0  0  0  0  0  0
   -2.3112    1.5805   -1.0267 C   0  0  0  0  0  0  0  0  0  0  0  0
   -3.6713    1.7305   -0.8473 C   0  0  0  0  0  0  0  0  0  0  0  0
   -4.4833    2.7331   -1.5870 C   0  0  0  0  0  0  0  0  0  0  0  0
   -4.2533    0.9102    0.0497 N   0  0  0  0  0  0  0  0  0  0  0  0
  1  2  1  0
  2  3  2  0
  3  4  1  0
  4  5  1  0
  5  6  2  0
  6  7  1  0
  7  8  2  0
  8  9  1  0
  9 10  2  0
 10 11  1  0
 10 12  1  0
 12 13  2  0
  4 14  2  0
 14 15  1  0
 15 16  1  0
 15 17  2  0
 17  2  1  0
 13  7  1  0
M  END
>  <zinc_id>  (5) 
ZINC000642880455

>  <smiles>  (5) 
Cc1cc(/C=C/c2ccc(O)cc2)cc(C)n1

$$$$

     RDKit          3D

 17 18  0  0  0  0  0  0  0  0999 V2000
   -0.7486    2.9946   -0.7894 C   0  0  0  0  0  0  0  0  0  0  0  0
   -1.5207    1.7637   -0.4802 C   0  0  0  0  0  0  0  0  0  0  0  0
   -0.8916    0.6064   -0.1024 C   0  0  0  0  0  0  0  0  0  0  0  0
   -1.5505   -0.5322    0.1872 C   0  0  0  0  0  0  0  0  0  0  0  0
   -1.1049   -1.8267    0.5932 C   0  0  0  0  0  0  0  0  0  0  0  0
    0.0708   -2.1675    0.7681 C   0  0  0  0  0  0  0  0  0  0  0  0
    1.2559   -1.3878    0.6168 C   0  0  0  0  0  0  0  0  0  0  0  0
    1.3850   -0.0982    0.2492 C   0  0  0  0  0  0  0  0  0  0  0  0
    2.5745    0.5845    0.1265 C   0  0  0  0  0  0  0  0  0  0  0  0
    3.7900   -0.0462    0.3883 C   0  0  0  0  0  0  0  0  0  0  0  0
    5.0066    0.6089    0.2754 O   0  0  0  0  0  0  0  0  0  0  0  0
    3.6808   -1.3651    0.7658 C   0  0  0  0  0  0  0  0  0  0  0  0
    2.4902   -2.0287    0.8829 C   0  0  0  0  0  0  0  0  0  0  0  0
   -2.9549   -0.4397    0.0700 C   0  0  0  0  0  0  0  0  0  0  0  0
   -3.5580    0.7233   -0.3078 C   0  0  0  0  0  0  0  0  0  0  0  0
   -5.0596    0.7928   -0.4245 C   0  0  0  0  0  0  0  0  0  0  0  0
   -2.8651    1.8179   -0.5824 N   0  0  0  0  0  0  0  0  0  0  0  0
  1  2  1  0
  2  3  2  0
  3  4  1  0
  4  5  1  0
  5  6  2  0
  6  7  1  0
  7  8  2  0
  8  9  1  0
  9 10  2  0
 10 11  1  0
 10 12  1  0
 12 13  2  0
  4 14  2  0
 14 15  1  0
 15 16  1  0
 15 17  2  0
 17  2  1  0
 13  7  1  0
M  END
>  <zinc_id>  (6) 
ZINC001082511108

>  <smiles>  (6) 
Cc1cc(/C=C\c2ccc(O)cc2)cc(C)n1

$$$$
